BEGIN options
  SAVE_FLOWS
END options

BEGIN dimensions
  MAXBOUND  200
END dimensions

BEGIN period  1
  1 1 1      10.00000000
  1 1 100       0.00000000
  1 2 1      10.00000000
  1 2 100       0.00000000
  1 3 1      10.00000000
  1 3 100       0.00000000
  1 4 1      10.00000000
  1 4 100       0.00000000
  1 5 1      10.00000000
  1 5 100       0.00000000
  1 6 1      10.00000000
  1 6 100       0.00000000
  1 7 1      10.00000000
  1 7 100       0.00000000
  1 8 1      10.00000000
  1 8 100       0.00000000
  1 9 1      10.00000000
  1 9 100       0.00000000
  1 10 1      10.00000000
  1 10 100       0.00000000
  1 11 1      10.00000000
  1 11 100       0.00000000
  1 12 1      10.00000000
  1 12 100       0.00000000
  1 13 1      10.00000000
  1 13 100       0.00000000
  1 14 1      10.00000000
  1 14 100       0.00000000
  1 15 1      10.00000000
  1 15 100       0.00000000
  1 16 1      10.00000000
  1 16 100       0.00000000
  1 17 1      10.00000000
  1 17 100       0.00000000
  1 18 1      10.00000000
  1 18 100       0.00000000
  1 19 1      10.00000000
  1 19 100       0.00000000
  1 20 1      10.00000000
  1 20 100       0.00000000
  1 21 1      10.00000000
  1 21 100       0.00000000
  1 22 1      10.00000000
  1 22 100       0.00000000
  1 23 1      10.00000000
  1 23 100       0.00000000
  1 24 1      10.00000000
  1 24 100       0.00000000
  1 25 1      10.00000000
  1 25 100       0.00000000
  1 26 1      10.00000000
  1 26 100       0.00000000
  1 27 1      10.00000000
  1 27 100       0.00000000
  1 28 1      10.00000000
  1 28 100       0.00000000
  1 29 1      10.00000000
  1 29 100       0.00000000
  1 30 1      10.00000000
  1 30 100       0.00000000
  1 31 1      10.00000000
  1 31 100       0.00000000
  1 32 1      10.00000000
  1 32 100       0.00000000
  1 33 1      10.00000000
  1 33 100       0.00000000
  1 34 1      10.00000000
  1 34 100       0.00000000
  1 35 1      10.00000000
  1 35 100       0.00000000
  1 36 1      10.00000000
  1 36 100       0.00000000
  1 37 1      10.00000000
  1 37 100       0.00000000
  1 38 1      10.00000000
  1 38 100       0.00000000
  1 39 1      10.00000000
  1 39 100       0.00000000
  1 40 1      10.00000000
  1 40 100       0.00000000
  1 41 1      10.00000000
  1 41 100       0.00000000
  1 42 1      10.00000000
  1 42 100       0.00000000
  1 43 1      10.00000000
  1 43 100       0.00000000
  1 44 1      10.00000000
  1 44 100       0.00000000
  1 45 1      10.00000000
  1 45 100       0.00000000
  1 46 1      10.00000000
  1 46 100       0.00000000
  1 47 1      10.00000000
  1 47 100       0.00000000
  1 48 1      10.00000000
  1 48 100       0.00000000
  1 49 1      10.00000000
  1 49 100       0.00000000
  1 50 1      10.00000000
  1 50 100       0.00000000
  1 51 1      10.00000000
  1 51 100       0.00000000
  1 52 1      10.00000000
  1 52 100       0.00000000
  1 53 1      10.00000000
  1 53 100       0.00000000
  1 54 1      10.00000000
  1 54 100       0.00000000
  1 55 1      10.00000000
  1 55 100       0.00000000
  1 56 1      10.00000000
  1 56 100       0.00000000
  1 57 1      10.00000000
  1 57 100       0.00000000
  1 58 1      10.00000000
  1 58 100       0.00000000
  1 59 1      10.00000000
  1 59 100       0.00000000
  1 60 1      10.00000000
  1 60 100       0.00000000
  1 61 1      10.00000000
  1 61 100       0.00000000
  1 62 1      10.00000000
  1 62 100       0.00000000
  1 63 1      10.00000000
  1 63 100       0.00000000
  1 64 1      10.00000000
  1 64 100       0.00000000
  1 65 1      10.00000000
  1 65 100       0.00000000
  1 66 1      10.00000000
  1 66 100       0.00000000
  1 67 1      10.00000000
  1 67 100       0.00000000
  1 68 1      10.00000000
  1 68 100       0.00000000
  1 69 1      10.00000000
  1 69 100       0.00000000
  1 70 1      10.00000000
  1 70 100       0.00000000
  1 71 1      10.00000000
  1 71 100       0.00000000
  1 72 1      10.00000000
  1 72 100       0.00000000
  1 73 1      10.00000000
  1 73 100       0.00000000
  1 74 1      10.00000000
  1 74 100       0.00000000
  1 75 1      10.00000000
  1 75 100       0.00000000
  1 76 1      10.00000000
  1 76 100       0.00000000
  1 77 1      10.00000000
  1 77 100       0.00000000
  1 78 1      10.00000000
  1 78 100       0.00000000
  1 79 1      10.00000000
  1 79 100       0.00000000
  1 80 1      10.00000000
  1 80 100       0.00000000
  1 81 1      10.00000000
  1 81 100       0.00000000
  1 82 1      10.00000000
  1 82 100       0.00000000
  1 83 1      10.00000000
  1 83 100       0.00000000
  1 84 1      10.00000000
  1 84 100       0.00000000
  1 85 1      10.00000000
  1 85 100       0.00000000
  1 86 1      10.00000000
  1 86 100       0.00000000
  1 87 1      10.00000000
  1 87 100       0.00000000
  1 88 1      10.00000000
  1 88 100       0.00000000
  1 89 1      10.00000000
  1 89 100       0.00000000
  1 90 1      10.00000000
  1 90 100       0.00000000
  1 91 1      10.00000000
  1 91 100       0.00000000
  1 92 1      10.00000000
  1 92 100       0.00000000
  1 93 1      10.00000000
  1 93 100       0.00000000
  1 94 1      10.00000000
  1 94 100       0.00000000
  1 95 1      10.00000000
  1 95 100       0.00000000
  1 96 1      10.00000000
  1 96 100       0.00000000
  1 97 1      10.00000000
  1 97 100       0.00000000
  1 98 1      10.00000000
  1 98 100       0.00000000
  1 99 1      10.00000000
  1 99 100       0.00000000
  1 100 1      10.00000000
  1 100 100       0.00000000
END period  1

