pcf
* control data
             restart          estimation
        64       196         1         0         1         0
         1         1              single               point         1         0         0          noobsreref
   2.000000E+01  -3.000000E+00   3.000000E-01   1.000000E-02        -7       999          lamforgive        noderforgive
   1.000000E+01   1.000000E+01   1.000000E-03         0         0
   1.000000E-01         1   1.100000E+00               noaui          nosenreuse        noboundscale
         0   1.000000E-02         3         3   1.000000E-02         3   0.000000E+00         1  -1.000000E+00
         0         0         0         0             jcosave          verboserec          jcosaveitn          reisaveitn          parsaveitn        noparsaverun
* singular value decomposition
         1
  10000000    1.000000E-06
1
* parameter groups
 kp_inst:0               relative              1.0000000000E-02       0  switch                2.0000000000E+00       parabolic              1.0000000000E-05       5.0000000000E-01       smaller              
* parameter data
 kp_inst:0_i:6_j:6      log                    factor                1.0000000000E-01      1.0000000000E-01      1.0000000000E+01       kp_inst:0             1.0000000000E+00      0.0000000000E+00       1          
 kp_inst:0_i:6_j:18     log                    factor                1.0000000000E-01      1.0000000000E-01      1.0000000000E+01       kp_inst:0             1.0000000000E+00      0.0000000000E+00       1          
 kp_inst:0_i:6_j:30     log                    factor                1.3001156916E-01      1.0000000000E-01      1.0000000000E+01       kp_inst:0             1.0000000000E+00      0.0000000000E+00       1          
 kp_inst:0_i:6_j:42     log                    factor                1.1639847757E+00      1.0000000000E-01      1.0000000000E+01       kp_inst:0             1.0000000000E+00      0.0000000000E+00       1          
 kp_inst:0_i:6_j:54     log                    factor                3.1186023370E+00      1.0000000000E-01      1.0000000000E+01       kp_inst:0             1.0000000000E+00      0.0000000000E+00       1          
 kp_inst:0_i:6_j:66     log                    factor                2.3583431650E-01      1.0000000000E-01      1.0000000000E+01       kp_inst:0             1.0000000000E+00      0.0000000000E+00       1          
 kp_inst:0_i:6_j:78     log                    factor                1.0000000000E-01      1.0000000000E-01      1.0000000000E+01       kp_inst:0             1.0000000000E+00      0.0000000000E+00       1          
 kp_inst:0_i:6_j:90     log                    factor                1.0352232090E-01      1.0000000000E-01      1.0000000000E+01       kp_inst:0             1.0000000000E+00      0.0000000000E+00       1          
 kp_inst:0_i:18_j:6     log                    factor                1.0000000000E-01      1.0000000000E-01      1.0000000000E+01       kp_inst:0             1.0000000000E+00      0.0000000000E+00       1          
 kp_inst:0_i:18_j:18    log                    factor                1.0000000000E-01      1.0000000000E-01      1.0000000000E+01       kp_inst:0             1.0000000000E+00      0.0000000000E+00       1          
 kp_inst:0_i:18_j:30    log                    factor                3.0383793796E-01      1.0000000000E-01      1.0000000000E+01       kp_inst:0             1.0000000000E+00      0.0000000000E+00       1          
 kp_inst:0_i:18_j:42    log                    factor                1.0000000000E+01      1.0000000000E-01      1.0000000000E+01       kp_inst:0             1.0000000000E+00      0.0000000000E+00       1          
 kp_inst:0_i:18_j:54    log                    factor                1.0000000000E+01      1.0000000000E-01      1.0000000000E+01       kp_inst:0             1.0000000000E+00      0.0000000000E+00       1          
 kp_inst:0_i:18_j:66    log                    factor                7.0810229180E-01      1.0000000000E-01      1.0000000000E+01       kp_inst:0             1.0000000000E+00      0.0000000000E+00       1          
 kp_inst:0_i:18_j:78    log                    factor                1.2154217394E-01      1.0000000000E-01      1.0000000000E+01       kp_inst:0             1.0000000000E+00      0.0000000000E+00       1          
 kp_inst:0_i:18_j:90    log                    factor                1.0000000000E-01      1.0000000000E-01      1.0000000000E+01       kp_inst:0             1.0000000000E+00      0.0000000000E+00       1          
 kp_inst:0_i:30_j:6     log                    factor                1.0000000000E-01      1.0000000000E-01      1.0000000000E+01       kp_inst:0             1.0000000000E+00      0.0000000000E+00       1          
 kp_inst:0_i:30_j:18    log                    factor                1.0000000000E-01      1.0000000000E-01      1.0000000000E+01       kp_inst:0             1.0000000000E+00      0.0000000000E+00       1          
 kp_inst:0_i:30_j:30    log                    factor                2.1639140164E-01      1.0000000000E-01      1.0000000000E+01       kp_inst:0             1.0000000000E+00      0.0000000000E+00       1          
 kp_inst:0_i:30_j:42    log                    factor                1.0000000000E+01      1.0000000000E-01      1.0000000000E+01       kp_inst:0             1.0000000000E+00      0.0000000000E+00       1          
 kp_inst:0_i:30_j:54    log                    factor                1.0000000000E+01      1.0000000000E-01      1.0000000000E+01       kp_inst:0             1.0000000000E+00      0.0000000000E+00       1          
 kp_inst:0_i:30_j:66    log                    factor                3.8453511068E-01      1.0000000000E-01      1.0000000000E+01       kp_inst:0             1.0000000000E+00      0.0000000000E+00       1          
 kp_inst:0_i:30_j:78    log                    factor                1.0000000000E-01      1.0000000000E-01      1.0000000000E+01       kp_inst:0             1.0000000000E+00      0.0000000000E+00       1          
 kp_inst:0_i:30_j:90    log                    factor                1.0000000000E-01      1.0000000000E-01      1.0000000000E+01       kp_inst:0             1.0000000000E+00      0.0000000000E+00       1          
 kp_inst:0_i:42_j:6     log                    factor                2.1381147030E-01      1.0000000000E-01      1.0000000000E+01       kp_inst:0             1.0000000000E+00      0.0000000000E+00       1          
 kp_inst:0_i:42_j:18    log                    factor                2.1615585314E-01      1.0000000000E-01      1.0000000000E+01       kp_inst:0             1.0000000000E+00      0.0000000000E+00       1          
 kp_inst:0_i:42_j:30    log                    factor                2.3985843736E-01      1.0000000000E-01      1.0000000000E+01       kp_inst:0             1.0000000000E+00      0.0000000000E+00       1          
 kp_inst:0_i:42_j:42    log                    factor                2.4170742963E-01      1.0000000000E-01      1.0000000000E+01       kp_inst:0             1.0000000000E+00      0.0000000000E+00       1          
 kp_inst:0_i:42_j:54    log                    factor                4.4986375088E-01      1.0000000000E-01      1.0000000000E+01       kp_inst:0             1.0000000000E+00      0.0000000000E+00       1          
 kp_inst:0_i:42_j:66    log                    factor                1.6244673989E-01      1.0000000000E-01      1.0000000000E+01       kp_inst:0             1.0000000000E+00      0.0000000000E+00       1          
 kp_inst:0_i:42_j:78    log                    factor                1.1262375420E-01      1.0000000000E-01      1.0000000000E+01       kp_inst:0             1.0000000000E+00      0.0000000000E+00       1          
 kp_inst:0_i:42_j:90    log                    factor                1.2549458883E-01      1.0000000000E-01      1.0000000000E+01       kp_inst:0             1.0000000000E+00      0.0000000000E+00       1          
 kp_inst:0_i:54_j:6     log                    factor                2.9284714878E-01      1.0000000000E-01      1.0000000000E+01       kp_inst:0             1.0000000000E+00      0.0000000000E+00       1          
 kp_inst:0_i:54_j:18    log                    factor                2.8243596607E-01      1.0000000000E-01      1.0000000000E+01       kp_inst:0             1.0000000000E+00      0.0000000000E+00       1          
 kp_inst:0_i:54_j:30    log                    factor                2.5893156724E-01      1.0000000000E-01      1.0000000000E+01       kp_inst:0             1.0000000000E+00      0.0000000000E+00       1          
 kp_inst:0_i:54_j:42    log                    factor                3.1103409628E-01      1.0000000000E-01      1.0000000000E+01       kp_inst:0             1.0000000000E+00      0.0000000000E+00       1          
 kp_inst:0_i:54_j:54    log                    factor                2.9635141144E-01      1.0000000000E-01      1.0000000000E+01       kp_inst:0             1.0000000000E+00      0.0000000000E+00       1          
 kp_inst:0_i:54_j:66    log                    factor                3.0690431885E-01      1.0000000000E-01      1.0000000000E+01       kp_inst:0             1.0000000000E+00      0.0000000000E+00       1          
 kp_inst:0_i:54_j:78    log                    factor                1.8056393056E-01      1.0000000000E-01      1.0000000000E+01       kp_inst:0             1.0000000000E+00      0.0000000000E+00       1          
 kp_inst:0_i:54_j:90    log                    factor                1.0257865492E-01      1.0000000000E-01      1.0000000000E+01       kp_inst:0             1.0000000000E+00      0.0000000000E+00       1          
 kp_inst:0_i:66_j:6     log                    factor                1.0000000000E-01      1.0000000000E-01      1.0000000000E+01       kp_inst:0             1.0000000000E+00      0.0000000000E+00       1          
 kp_inst:0_i:66_j:18    log                    factor                4.4125435020E-01      1.0000000000E-01      1.0000000000E+01       kp_inst:0             1.0000000000E+00      0.0000000000E+00       1          
 kp_inst:0_i:66_j:30    log                    factor                2.3399522763E+00      1.0000000000E-01      1.0000000000E+01       kp_inst:0             1.0000000000E+00      0.0000000000E+00       1          
 kp_inst:0_i:66_j:42    log                    factor                3.4198416717E-01      1.0000000000E-01      1.0000000000E+01       kp_inst:0             1.0000000000E+00      0.0000000000E+00       1          
 kp_inst:0_i:66_j:54    log                    factor                1.0000000000E-01      1.0000000000E-01      1.0000000000E+01       kp_inst:0             1.0000000000E+00      0.0000000000E+00       1          
 kp_inst:0_i:66_j:66    log                    factor                3.0310074232E-01      1.0000000000E-01      1.0000000000E+01       kp_inst:0             1.0000000000E+00      0.0000000000E+00       1          
 kp_inst:0_i:66_j:78    log                    factor                2.0084498866E+00      1.0000000000E-01      1.0000000000E+01       kp_inst:0             1.0000000000E+00      0.0000000000E+00       1          
 kp_inst:0_i:66_j:90    log                    factor                1.3986176353E+00      1.0000000000E-01      1.0000000000E+01       kp_inst:0             1.0000000000E+00      0.0000000000E+00       1          
 kp_inst:0_i:78_j:6     log                    factor                1.0000000000E-01      1.0000000000E-01      1.0000000000E+01       kp_inst:0             1.0000000000E+00      0.0000000000E+00       1          
 kp_inst:0_i:78_j:18    log                    factor                1.2175539108E+00      1.0000000000E-01      1.0000000000E+01       kp_inst:0             1.0000000000E+00      0.0000000000E+00       1          
 kp_inst:0_i:78_j:30    log                    factor                7.3930560707E+00      1.0000000000E-01      1.0000000000E+01       kp_inst:0             1.0000000000E+00      0.0000000000E+00       1          
 kp_inst:0_i:78_j:42    log                    factor                2.2746155301E+00      1.0000000000E-01      1.0000000000E+01       kp_inst:0             1.0000000000E+00      0.0000000000E+00       1          
 kp_inst:0_i:78_j:54    log                    factor                1.1018538666E-01      1.0000000000E-01      1.0000000000E+01       kp_inst:0             1.0000000000E+00      0.0000000000E+00       1          
 kp_inst:0_i:78_j:66    log                    factor                1.0116639163E+00      1.0000000000E-01      1.0000000000E+01       kp_inst:0             1.0000000000E+00      0.0000000000E+00       1          
 kp_inst:0_i:78_j:78    log                    factor                6.8178901565E+00      1.0000000000E-01      1.0000000000E+01       kp_inst:0             1.0000000000E+00      0.0000000000E+00       1          
 kp_inst:0_i:78_j:90    log                    factor                2.9911899984E+00      1.0000000000E-01      1.0000000000E+01       kp_inst:0             1.0000000000E+00      0.0000000000E+00       1          
 kp_inst:0_i:90_j:6     log                    factor                1.0000000000E-01      1.0000000000E-01      1.0000000000E+01       kp_inst:0             1.0000000000E+00      0.0000000000E+00       1          
 kp_inst:0_i:90_j:18    log                    factor                5.2824451953E-01      1.0000000000E-01      1.0000000000E+01       kp_inst:0             1.0000000000E+00      0.0000000000E+00       1          
 kp_inst:0_i:90_j:30    log                    factor                2.6381592027E+00      1.0000000000E-01      1.0000000000E+01       kp_inst:0             1.0000000000E+00      0.0000000000E+00       1          
 kp_inst:0_i:90_j:42    log                    factor                6.9577048216E-01      1.0000000000E-01      1.0000000000E+01       kp_inst:0             1.0000000000E+00      0.0000000000E+00       1          
 kp_inst:0_i:90_j:54    log                    factor                1.0616491100E-01      1.0000000000E-01      1.0000000000E+01       kp_inst:0             1.0000000000E+00      0.0000000000E+00       1          
 kp_inst:0_i:90_j:66    log                    factor                4.4843964490E-01      1.0000000000E-01      1.0000000000E+01       kp_inst:0             1.0000000000E+00      0.0000000000E+00       1          
 kp_inst:0_i:90_j:78    log                    factor                2.5754196206E+00      1.0000000000E-01      1.0000000000E+01       kp_inst:0             1.0000000000E+00      0.0000000000E+00       1          
 kp_inst:0_i:90_j:90    log                    factor                9.0796310215E-01      1.0000000000E-01      1.0000000000E+01       kp_inst:0             1.0000000000E+00      0.0000000000E+00       1          
* observation groups
obgnme               
* observation data
 hds_usecol:0_15_15_time:1.0  7.5914435170E+00      1.0000000000E+00       obgnme               
  hds_usecol:0_15_1_time:1.0  9.8431532190E+00      1.0000000000E+00       obgnme               
 hds_usecol:0_15_22_time:1.0  6.3863146680E+00      1.0000000000E+00       obgnme               
 hds_usecol:0_15_29_time:1.0  5.2061044880E+00      1.0000000000E+00       obgnme               
 hds_usecol:0_15_36_time:1.0  4.9290155140E+00      1.0000000000E+00       obgnme               
 hds_usecol:0_15_43_time:1.0  4.8674833260E+00      1.0000000000E+00       obgnme               
 hds_usecol:0_15_50_time:1.0  4.8383980540E+00      1.0000000000E+00       obgnme               
 hds_usecol:0_15_57_time:1.0  4.8099272660E+00      1.0000000000E+00       obgnme               
 hds_usecol:0_15_64_time:1.0  4.7518394630E+00      1.0000000000E+00       obgnme               
 hds_usecol:0_15_71_time:1.0  4.4924902630E+00      1.0000000000E+00       obgnme               
 hds_usecol:0_15_78_time:1.0  3.3754270450E+00      1.0000000000E+00       obgnme               
 hds_usecol:0_15_85_time:1.0  2.2176408570E+00      1.0000000000E+00       obgnme               
  hds_usecol:0_15_8_time:1.0  8.7335232370E+00      1.0000000000E+00       obgnme               
 hds_usecol:0_15_92_time:1.0  1.1041870120E+00      1.0000000000E+00       obgnme               
  hds_usecol:0_1_15_time:1.0  7.6526560520E+00      1.0000000000E+00       obgnme               
   hds_usecol:0_1_1_time:1.0  9.8439886320E+00      1.0000000000E+00       obgnme               
  hds_usecol:0_1_22_time:1.0  6.5884882100E+00      1.0000000000E+00       obgnme               
  hds_usecol:0_1_29_time:1.0  5.6455852200E+00      1.0000000000E+00       obgnme               
  hds_usecol:0_1_36_time:1.0  5.0288981490E+00      1.0000000000E+00       obgnme               
  hds_usecol:0_1_43_time:1.0  4.8802064310E+00      1.0000000000E+00       obgnme               
  hds_usecol:0_1_50_time:1.0  4.8412484350E+00      1.0000000000E+00       obgnme               
  hds_usecol:0_1_57_time:1.0  4.8041406180E+00      1.0000000000E+00       obgnme               
  hds_usecol:0_1_64_time:1.0  4.6690573290E+00      1.0000000000E+00       obgnme               
  hds_usecol:0_1_71_time:1.0  4.0993283650E+00      1.0000000000E+00       obgnme               
  hds_usecol:0_1_78_time:1.0  3.2082914250E+00      1.0000000000E+00       obgnme               
  hds_usecol:0_1_85_time:1.0  2.1811265430E+00      1.0000000000E+00       obgnme               
   hds_usecol:0_1_8_time:1.0  8.7478644870E+00      1.0000000000E+00       obgnme               
  hds_usecol:0_1_92_time:1.0  1.1021028010E+00      1.0000000000E+00       obgnme               
 hds_usecol:0_22_15_time:1.0  7.5991478390E+00      1.0000000000E+00       obgnme               
  hds_usecol:0_22_1_time:1.0  9.8441375040E+00      1.0000000000E+00       obgnme               
 hds_usecol:0_22_22_time:1.0  6.3744694500E+00      1.0000000000E+00       obgnme               
 hds_usecol:0_22_29_time:1.0  5.1862723480E+00      1.0000000000E+00       obgnme               
 hds_usecol:0_22_36_time:1.0  4.9279768720E+00      1.0000000000E+00       obgnme               
 hds_usecol:0_22_43_time:1.0  4.8672205440E+00      1.0000000000E+00       obgnme               
 hds_usecol:0_22_50_time:1.0  4.8369986240E+00      1.0000000000E+00       obgnme               
 hds_usecol:0_22_57_time:1.0  4.8070848290E+00      1.0000000000E+00       obgnme               
 hds_usecol:0_22_64_time:1.0  4.7480835850E+00      1.0000000000E+00       obgnme               
 hds_usecol:0_22_71_time:1.0  4.4999614670E+00      1.0000000000E+00       obgnme               
 hds_usecol:0_22_78_time:1.0  3.3568453320E+00      1.0000000000E+00       obgnme               
 hds_usecol:0_22_85_time:1.0  2.1783661370E+00      1.0000000000E+00       obgnme               
  hds_usecol:0_22_8_time:1.0  8.7404861570E+00      1.0000000000E+00       obgnme               
 hds_usecol:0_22_92_time:1.0  1.0782090730E+00      1.0000000000E+00       obgnme               
 hds_usecol:0_29_15_time:1.0  7.6672169260E+00      1.0000000000E+00       obgnme               
  hds_usecol:0_29_1_time:1.0  9.8472260780E+00      1.0000000000E+00       obgnme               
 hds_usecol:0_29_22_time:1.0  6.5224912400E+00      1.0000000000E+00       obgnme               
 hds_usecol:0_29_29_time:1.0  5.3335012890E+00      1.0000000000E+00       obgnme               
 hds_usecol:0_29_36_time:1.0  4.9540996660E+00      1.0000000000E+00       obgnme               
 hds_usecol:0_29_43_time:1.0  4.8727662250E+00      1.0000000000E+00       obgnme               
 hds_usecol:0_29_50_time:1.0  4.8346662690E+00      1.0000000000E+00       obgnme               
 hds_usecol:0_29_57_time:1.0  4.7960938980E+00      1.0000000000E+00       obgnme               
 hds_usecol:0_29_64_time:1.0  4.7130724670E+00      1.0000000000E+00       obgnme               
 hds_usecol:0_29_71_time:1.0  4.3298585990E+00      1.0000000000E+00       obgnme               
 hds_usecol:0_29_78_time:1.0  3.1526264380E+00      1.0000000000E+00       obgnme               
 hds_usecol:0_29_85_time:1.0  2.0549275930E+00      1.0000000000E+00       obgnme               
  hds_usecol:0_29_8_time:1.0  8.7682726980E+00      1.0000000000E+00       obgnme               
 hds_usecol:0_29_92_time:1.0  1.0186375680E+00      1.0000000000E+00       obgnme               
 hds_usecol:0_36_15_time:1.0  7.7614430340E+00      1.0000000000E+00       obgnme               
  hds_usecol:0_36_1_time:1.0  9.8507397920E+00      1.0000000000E+00       obgnme               
 hds_usecol:0_36_22_time:1.0  6.7399001750E+00      1.0000000000E+00       obgnme               
 hds_usecol:0_36_29_time:1.0  5.7626714010E+00      1.0000000000E+00       obgnme               
 hds_usecol:0_36_36_time:1.0  5.0643531060E+00      1.0000000000E+00       obgnme               
 hds_usecol:0_36_43_time:1.0  4.8960243980E+00      1.0000000000E+00       obgnme               
 hds_usecol:0_36_50_time:1.0  4.8284667070E+00      1.0000000000E+00       obgnme               
 hds_usecol:0_36_57_time:1.0  4.7562812470E+00      1.0000000000E+00       obgnme               
 hds_usecol:0_36_64_time:1.0  4.5656769760E+00      1.0000000000E+00       obgnme               
 hds_usecol:0_36_71_time:1.0  3.7991308790E+00      1.0000000000E+00       obgnme               
 hds_usecol:0_36_78_time:1.0  2.8148115200E+00      1.0000000000E+00       obgnme               
 hds_usecol:0_36_85_time:1.0  1.8585505520E+00      1.0000000000E+00       obgnme               
  hds_usecol:0_36_8_time:1.0  8.8026550430E+00      1.0000000000E+00       obgnme               
 hds_usecol:0_36_92_time:1.0  9.2727158350E-01      1.0000000000E+00       obgnme               
 hds_usecol:0_43_15_time:1.0  7.8220279570E+00      1.0000000000E+00       obgnme               
  hds_usecol:0_43_1_time:1.0  9.8513894280E+00      1.0000000000E+00       obgnme               
 hds_usecol:0_43_22_time:1.0  6.9082935930E+00      1.0000000000E+00       obgnme               
 hds_usecol:0_43_29_time:1.0  6.1055771460E+00      1.0000000000E+00       obgnme               
 hds_usecol:0_43_36_time:1.0  5.4563761110E+00      1.0000000000E+00       obgnme               
 hds_usecol:0_43_43_time:1.0  5.0246685780E+00      1.0000000000E+00       obgnme               
 hds_usecol:0_43_50_time:1.0  4.7962275820E+00      1.0000000000E+00       obgnme               
 hds_usecol:0_43_57_time:1.0  4.5273847440E+00      1.0000000000E+00       obgnme               
 hds_usecol:0_43_64_time:1.0  3.9779586470E+00      1.0000000000E+00       obgnme               
 hds_usecol:0_43_71_time:1.0  3.2286047830E+00      1.0000000000E+00       obgnme               
 hds_usecol:0_43_78_time:1.0  2.4229602080E+00      1.0000000000E+00       obgnme               
 hds_usecol:0_43_85_time:1.0  1.6202032330E+00      1.0000000000E+00       obgnme               
  hds_usecol:0_43_8_time:1.0  8.8156661170E+00      1.0000000000E+00       obgnme               
 hds_usecol:0_43_92_time:1.0  8.1723357730E-01      1.0000000000E+00       obgnme               
 hds_usecol:0_50_15_time:1.0  7.7851067360E+00      1.0000000000E+00       obgnme               
  hds_usecol:0_50_1_time:1.0  9.8448354580E+00      1.0000000000E+00       obgnme               
 hds_usecol:0_50_22_time:1.0  6.9509765970E+00      1.0000000000E+00       obgnme               
 hds_usecol:0_50_29_time:1.0  6.2866355650E+00      1.0000000000E+00       obgnme               
 hds_usecol:0_50_36_time:1.0  5.7388217140E+00      1.0000000000E+00       obgnme               
 hds_usecol:0_50_43_time:1.0  5.2338902500E+00      1.0000000000E+00       obgnme               
 hds_usecol:0_50_50_time:1.0  4.7103537220E+00      1.0000000000E+00       obgnme               
 hds_usecol:0_50_57_time:1.0  4.1066192100E+00      1.0000000000E+00       obgnme               
 hds_usecol:0_50_64_time:1.0  3.4072454810E+00      1.0000000000E+00       obgnme               
 hds_usecol:0_50_71_time:1.0  2.6799217270E+00      1.0000000000E+00       obgnme               
 hds_usecol:0_50_78_time:1.0  2.0018800630E+00      1.0000000000E+00       obgnme               
 hds_usecol:0_50_85_time:1.0  1.3672198590E+00      1.0000000000E+00       obgnme               
  hds_usecol:0_50_8_time:1.0  8.7724093940E+00      1.0000000000E+00       obgnme               
 hds_usecol:0_50_92_time:1.0  7.1011175000E-01      1.0000000000E+00       obgnme               
 hds_usecol:0_57_15_time:1.0  7.5695216700E+00      1.0000000000E+00       obgnme               
  hds_usecol:0_57_1_time:1.0  9.8257475400E+00      1.0000000000E+00       obgnme               
 hds_usecol:0_57_22_time:1.0  6.7940098100E+00      1.0000000000E+00       obgnme               
 hds_usecol:0_57_29_time:1.0  6.3332919530E+00      1.0000000000E+00       obgnme               
 hds_usecol:0_57_36_time:1.0  5.9662459560E+00      1.0000000000E+00       obgnme               
 hds_usecol:0_57_43_time:1.0  5.4417269450E+00      1.0000000000E+00       obgnme               
 hds_usecol:0_57_50_time:1.0  4.6917281140E+00      1.0000000000E+00       obgnme               
 hds_usecol:0_57_57_time:1.0  3.7842966090E+00      1.0000000000E+00       obgnme               
 hds_usecol:0_57_64_time:1.0  2.8486024420E+00      1.0000000000E+00       obgnme               
 hds_usecol:0_57_71_time:1.0  2.0486601770E+00      1.0000000000E+00       obgnme               
 hds_usecol:0_57_78_time:1.0  1.5094054680E+00      1.0000000000E+00       obgnme               
 hds_usecol:0_57_85_time:1.0  1.1331149350E+00      1.0000000000E+00       obgnme               
  hds_usecol:0_57_8_time:1.0  8.6285257880E+00      1.0000000000E+00       obgnme               
 hds_usecol:0_57_92_time:1.0  6.5668517330E-01      1.0000000000E+00       obgnme               
 hds_usecol:0_64_15_time:1.0  7.0434751940E+00      1.0000000000E+00       obgnme               
  hds_usecol:0_64_1_time:1.0  9.7900066820E+00      1.0000000000E+00       obgnme               
 hds_usecol:0_64_22_time:1.0  6.4915126810E+00      1.0000000000E+00       obgnme               
 hds_usecol:0_64_29_time:1.0  6.3103840600E+00      1.0000000000E+00       obgnme               
 hds_usecol:0_64_36_time:1.0  6.1626188780E+00      1.0000000000E+00       obgnme               
 hds_usecol:0_64_43_time:1.0  5.8374761080E+00      1.0000000000E+00       obgnme               
 hds_usecol:0_64_50_time:1.0  4.8194196350E+00      1.0000000000E+00       obgnme               
 hds_usecol:0_64_57_time:1.0  3.4805126780E+00      1.0000000000E+00       obgnme               
 hds_usecol:0_64_64_time:1.0  2.1353632520E+00      1.0000000000E+00       obgnme               
 hds_usecol:0_64_71_time:1.0  1.4056158220E+00      1.0000000000E+00       obgnme               
 hds_usecol:0_64_78_time:1.0  1.1786066540E+00      1.0000000000E+00       obgnme               
 hds_usecol:0_64_85_time:1.0  1.0251574360E+00      1.0000000000E+00       obgnme               
  hds_usecol:0_64_8_time:1.0  8.3379517860E+00      1.0000000000E+00       obgnme               
 hds_usecol:0_64_92_time:1.0  7.6462434690E-01      1.0000000000E+00       obgnme               
 hds_usecol:0_71_15_time:1.0  6.6796947740E+00      1.0000000000E+00       obgnme               
  hds_usecol:0_71_1_time:1.0  9.7428766550E+00      1.0000000000E+00       obgnme               
 hds_usecol:0_71_22_time:1.0  6.4099249340E+00      1.0000000000E+00       obgnme               
 hds_usecol:0_71_29_time:1.0  6.2995442500E+00      1.0000000000E+00       obgnme               
 hds_usecol:0_71_36_time:1.0  6.2016314610E+00      1.0000000000E+00       obgnme               
 hds_usecol:0_71_43_time:1.0  6.0103631320E+00      1.0000000000E+00       obgnme               
 hds_usecol:0_71_50_time:1.0  5.1787526880E+00      1.0000000000E+00       obgnme               
 hds_usecol:0_71_57_time:1.0  3.1780731640E+00      1.0000000000E+00       obgnme               
 hds_usecol:0_71_64_time:1.0  1.6141668390E+00      1.0000000000E+00       obgnme               
 hds_usecol:0_71_71_time:1.0  1.2503506590E+00      1.0000000000E+00       obgnme               
 hds_usecol:0_71_78_time:1.0  1.1136049520E+00      1.0000000000E+00       obgnme               
 hds_usecol:0_71_85_time:1.0  1.0020537460E+00      1.0000000000E+00       obgnme               
  hds_usecol:0_71_8_time:1.0  7.9147150310E+00      1.0000000000E+00       obgnme               
 hds_usecol:0_71_92_time:1.0  8.0231539240E-01      1.0000000000E+00       obgnme               
 hds_usecol:0_78_15_time:1.0  6.5940137420E+00      1.0000000000E+00       obgnme               
  hds_usecol:0_78_1_time:1.0  9.7096183130E+00      1.0000000000E+00       obgnme               
 hds_usecol:0_78_22_time:1.0  6.3875854120E+00      1.0000000000E+00       obgnme               
 hds_usecol:0_78_29_time:1.0  6.2952739620E+00      1.0000000000E+00       obgnme               
 hds_usecol:0_78_36_time:1.0  6.2106041300E+00      1.0000000000E+00       obgnme               
 hds_usecol:0_78_43_time:1.0  6.0501554330E+00      1.0000000000E+00       obgnme               
 hds_usecol:0_78_50_time:1.0  5.3931042670E+00      1.0000000000E+00       obgnme               
 hds_usecol:0_78_57_time:1.0  2.9527493830E+00      1.0000000000E+00       obgnme               
 hds_usecol:0_78_64_time:1.0  1.4935130960E+00      1.0000000000E+00       obgnme               
 hds_usecol:0_78_71_time:1.0  1.2089955530E+00      1.0000000000E+00       obgnme               
 hds_usecol:0_78_78_time:1.0  1.0935205460E+00      1.0000000000E+00       obgnme               
 hds_usecol:0_78_85_time:1.0  9.9242281210E-01      1.0000000000E+00       obgnme               
  hds_usecol:0_78_8_time:1.0  7.5877108120E+00      1.0000000000E+00       obgnme               
 hds_usecol:0_78_92_time:1.0  8.0248455270E-01      1.0000000000E+00       obgnme               
 hds_usecol:0_85_15_time:1.0  6.6021370250E+00      1.0000000000E+00       obgnme               