BEGIN options
END options

BEGIN timing
  TDIS6  bench_ZB.tdis
END timing

BEGIN models
  gwf6  test_ZB.nam  test_ZB
END models

BEGIN exchanges
END exchanges

BEGIN solutiongroup  1
  ims6  bench_ZB.ims  test_ZB
END solutiongroup  1

