BEGIN options
END options

BEGIN timing
  TDIS6  Budget_mf6.tdis
END timing

BEGIN models
  gwf6  test_ZB.nam  test_ZB
END models

BEGIN exchanges
END exchanges

BEGIN solutiongroup  1
  ims6  Budget_mf6.ims  test_ZB
END solutiongroup  1

