BEGIN options
  SAVE_FLOWS
END options

BEGIN dimensions
  MAXBOUND  60
END dimensions

BEGIN period  1
  1 1 1       1.00000000
  1 2 1       1.00000000
  1 3 1       1.00000000
  1 4 1       1.00000000
  1 5 1       1.00000000
  1 6 1       1.00000000
  1 7 1       1.00000000
  1 8 1       1.00000000
  1 9 1       1.00000000
  1 10 1       1.00000000
  1 11 1       1.00000000
  1 12 1       1.00000000
  1 13 1       1.00000000
  1 14 1       1.00000000
  1 15 1       1.00000000
  1 16 1       1.00000000
  1 17 1       1.00000000
  1 18 1       1.00000000
  1 19 1       1.00000000
  1 20 1       1.00000000
  1 21 1       1.00000000
  1 22 1       1.00000000
  1 23 1       1.00000000
  1 24 1       1.00000000
  1 25 1       1.00000000
  1 26 1       1.00000000
  1 27 1       1.00000000
  1 28 1       1.00000000
  1 29 1       1.00000000
  1 30 1       1.00000000
  1 1 30       0.01000000
  1 2 30       0.01000000
  1 3 30       0.01000000
  1 4 30       0.01000000
  1 5 30       0.01000000
  1 6 30       0.01000000
  1 7 30       0.01000000
  1 8 30       0.01000000
  1 9 30       0.01000000
  1 10 30       0.01000000
  1 11 30       0.01000000
  1 12 30       0.01000000
  1 13 30       0.01000000
  1 14 30       0.01000000
  1 15 30       0.01000000
  1 16 30       0.01000000
  1 17 30       0.01000000
  1 18 30       0.01000000
  1 19 30       0.01000000
  1 20 30       0.01000000
  1 21 30       0.01000000
  1 22 30       0.01000000
  1 23 30       0.01000000
  1 24 30       0.01000000
  1 25 30       0.01000000
  1 26 30       0.01000000
  1 27 30       0.01000000
  1 28 30       0.01000000
  1 29 30       0.01000000
  1 30 30       0.01000000
END period  1

