# File generated by Flopy version 3.3.2 on 01/09/2021 at 17:22:25.
BEGIN options
END options

BEGIN timing
  TDIS6  SFR_simple.tdis
END timing

BEGIN models
  gwf6  test_SFR.nam  test_SFR
END models

BEGIN exchanges
END exchanges

BEGIN solutiongroup  1
  ims6  SFR_simple.ims  test_SFR
END solutiongroup  1

