BEGIN options
  PRINT_STAGE
  SAVE_FLOWS
  STAGE  FILEOUT  test_SFR.stage.bin
  BUDGET  FILEOUT  test_SFR.sfr.cbc
  OBS6  FILEIN  test_SFR.sfr.obs
END options

BEGIN dimensions
  NREACHES  30
END dimensions

BEGIN packagedata
  1  1 16 1      10.00000000       5.00000000       0.01379310       9.00000000       2.00000000  4.00000000E-05  0.03  1       1.00000000  0
  2  1 16 2      10.00000000       5.00000000       0.01379310       8.86206897       2.00000000  4.00000000E-05  0.03  2       1.00000000  0
  3  1 16 3      10.00000000       5.00000000       0.01379310       8.72413793       2.00000000  4.00000000E-05  0.03  2       1.00000000  0
  4  1 16 4      10.00000000       5.00000000       0.01379310       8.58620690       2.00000000  4.00000000E-05  0.03  2       1.00000000  0
  5  1 16 5      10.00000000       5.00000000       0.01379310       8.44827586       2.00000000  4.00000000E-05  0.03  2       1.00000000  0
  6  1 16 6      10.00000000       5.00000000       0.01379310       8.31034483       2.00000000  4.00000000E-05  0.03  2       1.00000000  0
  7  1 16 7      10.00000000       5.00000000       0.01379310       8.17241379       2.00000000  4.00000000E-05  0.03  2       1.00000000  0
  8  1 16 8      10.00000000       5.00000000       0.01379310       8.03448276       2.00000000  4.00000000E-05  0.03  2       1.00000000  0
  9  1 16 9      10.00000000       5.00000000       0.01379310       7.89655172       2.00000000  4.00000000E-05  0.03  2       1.00000000  0
  10  1 16 10      10.00000000       5.00000000       0.01379310       7.75862069       2.00000000  4.00000000E-05  0.03  2       1.00000000  0
  11  1 16 11      10.00000000       5.00000000       0.01379310       7.62068966       2.00000000  4.00000000E-05  0.03  2       1.00000000  0
  12  1 16 12      10.00000000       5.00000000       0.01379310       7.48275862       2.00000000  4.00000000E-05  0.03  2       1.00000000  0
  13  1 16 13      10.00000000       5.00000000       0.01379310       7.34482759       2.00000000  4.00000000E-05  0.03  2       1.00000000  0
  14  1 16 14      10.00000000       5.00000000       0.01379310       7.20689655       2.00000000  4.00000000E-05  0.03  2       1.00000000  0
  15  1 16 15      10.00000000       5.00000000       0.01379310       7.06896552       2.00000000  4.00000000E-05  0.03  2       1.00000000  0
  16  1 16 16      10.00000000       5.00000000       0.01379310       6.93103448       2.00000000  4.00000000E-05  0.03  2       1.00000000  0
  17  1 16 17      10.00000000       5.00000000       0.01379310       6.79310345       2.00000000  4.00000000E-05  0.03  2       1.00000000  0
  18  1 16 18      10.00000000       5.00000000       0.01379310       6.65517241       2.00000000  4.00000000E-05  0.03  2       1.00000000  0
  19  1 16 19      10.00000000       5.00000000       0.01379310       6.51724138       2.00000000  4.00000000E-05  0.03  2       1.00000000  0
  20  1 16 20      10.00000000       5.00000000       0.01379310       6.37931034       2.00000000  4.00000000E-05  0.03  2       1.00000000  0
  21  1 16 21      10.00000000       5.00000000       0.01379310       6.24137931       2.00000000  4.00000000E-05  0.03  2       1.00000000  0
  22  1 16 22      10.00000000       5.00000000       0.01379310       6.10344828       2.00000000  4.00000000E-05  0.03  2       1.00000000  0
  23  1 16 23      10.00000000       5.00000000       0.01379310       5.96551724       2.00000000  4.00000000E-05  0.03  2       1.00000000  0
  24  1 16 24      10.00000000       5.00000000       0.01379310       5.82758621       2.00000000  4.00000000E-05  0.03  2       1.00000000  0
  25  1 16 25      10.00000000       5.00000000       0.01379310       5.68965517       2.00000000  4.00000000E-05  0.03  2       1.00000000  0
  26  1 16 26      10.00000000       5.00000000       0.01379310       5.55172414       2.00000000  4.00000000E-05  0.03  2       1.00000000  0
  27  1 16 27      10.00000000       5.00000000       0.01379310       5.41379310       2.00000000  4.00000000E-05  0.03  2       1.00000000  0
  28  1 16 28      10.00000000       5.00000000       0.01379310       5.27586207       2.00000000  4.00000000E-05  0.03  2       1.00000000  0
  29  1 16 29      10.00000000       5.00000000       0.01379310       5.13793103       2.00000000  4.00000000E-05  0.03  2       1.00000000  0
  30  1 16 30      10.00000000       5.00000000       0.01379310       5.00000000       2.00000000  4.00000000E-05  0.03  1       1.00000000  0
END packagedata

BEGIN connectiondata
  1  -2
  2  1  -3
  3  2  -4
  4  3  -5
  5  4  -6
  6  5  -7
  7  6  -8
  8  7  -9
  9  8  -10
  10  9  -11
  11  10  -12
  12  11  -13
  13  12  -14
  14  13  -15
  15  14  -16
  16  15  -17
  17  16  -18
  18  17  -19
  19  18  -20
  20  19  -21
  21  20  -22
  22  21  -23
  23  22  -24
  24  23  -25
  25  24  -26
  26  25  -27
  27  26  -28
  28  27  -29
  29  28  -30
  30  29
END connectiondata

BEGIN period  1
  1  inflow  30
END period  1

