# File generated by Flopy version 3.3.2 on 01/09/2021 at 17:22:25.
BEGIN options
END options

BEGIN packages
  DIS6  test_SFR.dis  dis
  IC6  test_SFR.ic  ic
  OC6  test_SFR.oc  oc
  NPF6  test_SFR.npf  npf
  SFR6  test_SFR.sfr  sfr
  RCH6  test_SFR.rcha  rcha
END packages

