# File generated by Flopy version 3.3.2 on 01/09/2021 at 17:22:25.
BEGIN options
  READASARRAYS
  SAVE_FLOWS
END options

BEGIN period  1
  recharge
    CONSTANT  3.00000000E-07
END period  1

