# File generated by Flopy version 3.3.2 on 01/09/2021 at 17:22:25.
BEGIN options
  BUDGET  FILEOUT  test_SFR.cbc
  HEAD  FILEOUT  test_SFR.hds
END options

BEGIN period  1
  SAVE  HEAD  LAST
  SAVE  BUDGET  LAST
  PRINT  BUDGET  LAST
END period  1

