# File generated by Flopy version 3.3.2 on 01/09/2021 at 16:16:14.
BEGIN options
END options

BEGIN timing
  TDIS6  tuto_dis.tdis
END timing

BEGIN models
  gwf6  tuto_dis.nam  tuto_dis
END models

BEGIN exchanges
END exchanges

BEGIN solutiongroup  1
  ims6  tuto_dis.ims  tuto_dis
END solutiongroup  1

