# File generated by Flopy version 3.3.2 on 01/09/2021 at 16:16:14.
BEGIN options
  SAVE_FLOWS
  SAVE_SPECIFIC_DISCHARGE
END options

BEGIN griddata
  icelltype  LAYERED
    CONSTANT  1
    CONSTANT  0
    CONSTANT  0
  k  LAYERED
    CONSTANT  1.00000000E-04
    CONSTANT  1.00000000E-06
    CONSTANT  1.00000000E-04
END griddata

