BEGIN options
  SAVE_FLOWS
END options

BEGIN dimensions
  MAXBOUND  30
END dimensions

BEGIN period  1
  1 6 6      10.00000000
  1 7 6      10.00000000
  1 8 6      10.00000000
  1 9 6      10.00000000
  1 10 6      10.00000000
  1 11 6      10.00000000
  1 12 6      10.00000000
  1 13 6      10.00000000
  1 14 6      10.00000000
  1 15 6      10.00000000
  1 16 6      10.00000000
  1 17 6      10.00000000
  1 18 6      10.00000000
  1 19 6      10.00000000
  1 20 6      10.00000000
  1 6 26       5.00000000
  1 7 26       5.00000000
  1 8 26       5.00000000
  1 9 26       5.00000000
  1 10 26       5.00000000
  1 11 26       5.00000000
  1 12 26       5.00000000
  1 13 26       5.00000000
  1 14 26       5.00000000
  1 15 26       5.00000000
  1 16 26       5.00000000
  1 17 26       5.00000000
  1 18 26       5.00000000
  1 19 26       5.00000000
  1 20 26       5.00000000
END period  1

