BEGIN options
  XORIGIN    1000.00000000
  YORIGIN    2000.00000000
END options

BEGIN dimensions
  NLAY  3
  NROW  30
  NCOL  40
END dimensions

BEGIN griddata
  delr
    INTERNAL  FACTOR  1.0
         4.00000000       4.00000000       4.00000000       4.00000000       4.00000000       4.00000000       4.00000000       4.00000000       4.00000000       4.00000000       4.00000000       4.00000000       4.00000000       4.00000000       4.00000000       4.00000000       4.00000000       4.00000000       4.00000000       4.00000000
         4.00000000       4.00000000       4.00000000       4.00000000       4.00000000       4.00000000       4.00000000       4.00000000       4.00000000       4.00000000       4.00000000       4.00000000       4.00000000       4.00000000       4.00000000       4.00000000       4.00000000       4.00000000       4.00000000       4.00000000
  delc
    INTERNAL  FACTOR  1.0
         5.00000000       5.00000000       5.00000000       5.00000000       5.00000000       5.00000000       5.00000000       5.00000000       5.00000000       5.00000000       5.00000000       5.00000000       5.00000000       5.00000000       5.00000000       5.00000000       5.00000000       5.00000000       5.00000000       5.00000000
         5.00000000       5.00000000       5.00000000       5.00000000       5.00000000       5.00000000       5.00000000       5.00000000       5.00000000       5.00000000
  top
    CONSTANT      10.00000000
  botm  LAYERED
    CONSTANT       5.00000000
    CONSTANT       0.00000000
    CONSTANT     -10.00000000
  idomain  LAYERED
    INTERNAL  FACTOR  1
      0  0  0  0  0  0  0  0  0  0  0  0  0  0  0  0  0  0  0  0
      0  0  0  0  0  0  0  0  0  0  0  0  0  0  0  0  0  0  0  0
      0  0  0  0  0  0  0  0  0  0  0  0  0  0  0  0  0  0  0  0
      0  0  0  0  0  0  0  0  0  0  0  0  0  0  0  0  0  0  0  0
      0  0  0  0  0  0  0  0  0  0  0  0  0  0  0  0  0  0  0  0
      0  0  0  0  0  0  0  0  0  0  0  0  0  0  0  0  0  0  0  0
      0  0  0  0  0  0  0  0  0  0  0  0  0  0  0  0  0  0  0  0
      0  0  0  0  0  0  0  0  0  0  0  0  0  0  0  0  0  0  0  0
      0  0  0  0  0  0  0  0  0  0  0  0  0  0  0  0  1  1  1  1
      1  1  1  1  1  1  1  1  0  0  0  0  0  0  0  0  0  0  0  0
      0  0  0  0  0  1  1  1  1  1  1  1  1  1  1  1  1  1  1  1
      1  1  1  1  1  1  1  1  0  0  0  0  0  0  0  0  0  0  0  0
      0  0  0  0  0  1  1  1  1  1  1  1  1  1  1  1  1  1  1  1
      1  1  1  1  1  1  1  1  0  0  0  0  0  0  0  0  0  0  0  0
      0  0  0  0  0  1  1  1  1  1  1  1  1  1  1  1  1  1  1  1
      1  1  1  1  1  1  1  1  0  0  0  0  0  0  0  0  0  0  0  0
      0  0  0  0  0  1  1  1  1  1  1  1  1  1  1  1  1  1  1  1
      1  1  1  1  1  1  1  0  0  0  0  0  0  0  0  0  0  0  0  0
      0  0  0  0  0  1  1  1  1  1  1  1  1  1  1  1  1  1  1  1
      1  1  1  1  1  1  1  0  0  0  0  0  0  0  0  0  0  0  0  0
      0  0  0  0  0  1  1  1  1  1  1  1  1  1  1  1  1  1  1  1
      1  1  1  1  1  1  1  0  0  0  0  0  0  0  0  0  0  0  0  0
      0  0  0  0  0  1  1  1  1  1  1  1  1  1  1  1  1  1  1  1
      1  1  1  1  1  1  1  0  0  0  0  0  0  0  0  0  0  0  0  0
      0  0  0  0  0  1  1  1  1  1  1  1  1  1  1  1  1  1  1  1
      1  1  1  1  1  1  1  0  0  0  0  0  0  0  0  0  0  0  0  0
      0  0  0  0  0  1  1  1  1  1  1  1  1  1  1  1  1  1  1  1
      1  1  1  1  1  1  1  0  0  0  0  0  0  0  0  0  0  0  0  0
      0  0  0  0  0  1  1  1  1  1  1  1  1  1  1  1  1  1  1  1
      1  1  1  1  1  1  1  0  0  0  0  0  0  0  0  0  0  0  0  0
      0  0  0  0  0  1  1  1  1  1  1  1  1  1  1  1  1  1  1  1
      1  1  1  1  1  1  0  0  0  0  0  0  0  0  0  0  0  0  0  0
      0  0  0  0  0  1  1  1  1  1  1  1  1  1  1  1  1  1  1  1
      1  1  1  1  1  1  0  0  0  0  0  0  0  0  0  0  0  0  0  0
      0  0  0  0  0  1  1  1  1  1  1  1  1  1  1  1  1  1  1  1
      1  1  1  1  1  1  0  0  0  0  0  0  0  0  0  0  0  0  0  0
      0  0  0  0  0  1  1  1  1  1  1  1  1  1  1  1  1  1  1  1
      1  1  1  1  1  1  0  0  0  0  0  0  0  0  0  0  0  0  0  0
      0  0  0  0  0  1  1  1  1  1  1  1  1  1  1  1  1  1  1  1
      1  1  1  1  1  1  0  0  0  0  0  0  0  0  0  0  0  0  0  0
      0  0  0  0  0  1  1  1  1  1  1  1  1  1  1  1  1  1  1  1
      1  1  1  1  1  1  0  0  0  0  0  0  0  0  0  0  0  0  0  0
      0  0  0  0  0  1  1  1  1  1  1  1  1  1  1  1  1  1  1  1
      1  1  1  1  1  1  0  0  0  0  0  0  0  0  0  0  0  0  0  0
      0  0  0  0  0  0  1  1  1  1  1  1  1  1  1  1  1  1  1  1
      1  1  1  1  1  0  0  0  0  0  0  0  0  0  0  0  0  0  0  0
      0  0  0  0  0  0  1  1  1  1  1  1  1  1  1  1  1  1  1  1
      1  0  0  0  0  0  0  0  0  0  0  0  0  0  0  0  0  0  0  0
      0  0  0  0  0  0  1  1  1  1  1  1  1  1  1  1  0  0  0  0
      0  0  0  0  0  0  0  0  0  0  0  0  0  0  0  0  0  0  0  0
      0  0  0  0  0  0  1  1  1  1  1  0  0  0  0  0  0  0  0  0
      0  0  0  0  0  0  0  0  0  0  0  0  0  0  0  0  0  0  0  0
      0  0  0  0  0  0  0  0  0  0  0  0  0  0  0  0  0  0  0  0
      0  0  0  0  0  0  0  0  0  0  0  0  0  0  0  0  0  0  0  0
      0  0  0  0  0  0  0  0  0  0  0  0  0  0  0  0  0  0  0  0
      0  0  0  0  0  0  0  0  0  0  0  0  0  0  0  0  0  0  0  0
      0  0  0  0  0  0  0  0  0  0  0  0  0  0  0  0  0  0  0  0
      0  0  0  0  0  0  0  0  0  0  0  0  0  0  0  0  0  0  0  0
      0  0  0  0  0  0  0  0  0  0  0  0  0  0  0  0  0  0  0  0
      0  0  0  0  0  0  0  0  0  0  0  0  0  0  0  0  0  0  0  0
    INTERNAL  FACTOR  1
      0  0  0  0  0  0  0  0  0  0  0  0  0  0  0  0  0  0  0  0
      0  0  0  0  0  0  0  0  0  0  0  0  0  0  0  0  0  0  0  0
      0  0  0  0  0  0  0  0  0  0  0  0  0  0  0  0  0  0  0  0
      0  0  0  0  0  0  0  0  0  0  0  0  0  0  0  0  0  0  0  0
      0  0  0  0  0  0  0  0  0  0  0  0  0  0  0  0  0  0  0  0
      0  0  0  0  0  0  0  0  0  0  0  0  0  0  0  0  0  0  0  0
      0  0  0  0  0  0  0  0  0  0  0  0  0  0  0  0  0  0  0  0
      0  0  0  0  0  0  0  0  0  0  0  0  0  0  0  0  0  0  0  0
      0  0  0  0  0  0  0  0  0  0  0  0  0  0  0  0  1  1  1  1
      1  1  1  1  1  1  1  1  0  0  0  0  0  0  0  0  0  0  0  0
      0  0  0  0  0  1  1  1  1  1  1  1  1  1  1  1  1  1  1  1
      1  1  1  1  1  1  1  1  0  0  0  0  0  0  0  0  0  0  0  0
      0  0  0  0  0  1  1  1  1  1  1  1  1  1  1  1  1  1  1  1
      1  1  1  1  1  1  1  1  0  0  0  0  0  0  0  0  0  0  0  0
      0  0  0  0  0  1  1  1  1  1  1  1  1  1  1  1  1  1  1  1
      1  1  1  1  1  1  1  1  0  0  0  0  0  0  0  0  0  0  0  0
      0  0  0  0  0  1  1  1  1  1  1  1  1  1  1  1  1  1  1  1
      1  1  1  1  1  1  1  0  0  0  0  0  0  0  0  0  0  0  0  0
      0  0  0  0  0  1  1  1  1  1  1  1  1  1  1  1  1  1  1  1
      1  1  1  1  1  1  1  0  0  0  0  0  0  0  0  0  0  0  0  0
      0  0  0  0  0  1  1  1  1  1  1  1  1  1  1  1  1  1  1  1
      1  1  1  1  1  1  1  0  0  0  0  0  0  0  0  0  0  0  0  0
      0  0  0  0  0  1  1  1  1  1  1  1  1  1  1  1  1  1  1  1
      1  1  1  1  1  1  1  0  0  0  0  0  0  0  0  0  0  0  0  0
      0  0  0  0  0  1  1  1  1  1  1  1  1  1  1  1  1  1  1  1
      1  1  1  1  1  1  1  0  0  0  0  0  0  0  0  0  0  0  0  0
      0  0  0  0  0  1  1  1  1  1  1  1  1  1  1  1  1  1  1  1
      1  1  1  1  1  1  1  0  0  0  0  0  0  0  0  0  0  0  0  0
      0  0  0  0  0  1  1  1  1  1  1  1  1  1  1  1  1  1  1  1
      1  1  1  1  1  1  1  0  0  0  0  0  0  0  0  0  0  0  0  0
      0  0  0  0  0  1  1  1  1  1  1  1  1  1  1  1  1  1  1  1
      1  1  1  1  1  1  0  0  0  0  0  0  0  0  0  0  0  0  0  0
      0  0  0  0  0  1  1  1  1  1  1  1  1  1  1  1  1  1  1  1
      1  1  1  1  1  1  0  0  0  0  0  0  0  0  0  0  0  0  0  0
      0  0  0  0  0  1  1  1  1  1  1  1  1  1  1  1  1  1  1  1
      1  1  1  1  1  1  0  0  0  0  0  0  0  0  0  0  0  0  0  0
      0  0  0  0  0  1  1  1  1  1  1  1  1  1  1  1  1  1  1  1
      1  1  1  1  1  1  0  0  0  0  0  0  0  0  0  0  0  0  0  0
      0  0  0  0  0  1  1  1  1  1  1  1  1  1  1  1  1  1  1  1
      1  1  1  1  1  1  0  0  0  0  0  0  0  0  0  0  0  0  0  0
      0  0  0  0  0  1  1  1  1  1  1  1  1  1  1  1  1  1  1  1
      1  1  1  1  1  1  0  0  0  0  0  0  0  0  0  0  0  0  0  0
      0  0  0  0  0  1  1  1  1  1  1  1  1  1  1  1  1  1  1  1
      1  1  1  1  1  1  0  0  0  0  0  0  0  0  0  0  0  0  0  0
      0  0  0  0  0  0  1  1  1  1  1  1  1  1  1  1  1  1  1  1
      1  1  1  1  1  0  0  0  0  0  0  0  0  0  0  0  0  0  0  0
      0  0  0  0  0  0  1  1  1  1  1  1  1  1  1  1  1  1  1  1
      1  0  0  0  0  0  0  0  0  0  0  0  0  0  0  0  0  0  0  0
      0  0  0  0  0  0  1  1  1  1  1  1  1  1  1  1  0  0  0  0
      0  0  0  0  0  0  0  0  0  0  0  0  0  0  0  0  0  0  0  0
      0  0  0  0  0  0  1  1  1  1  1  0  0  0  0  0  0  0  0  0
      0  0  0  0  0  0  0  0  0  0  0  0  0  0  0  0  0  0  0  0
      0  0  0  0  0  0  0  0  0  0  0  0  0  0  0  0  0  0  0  0
      0  0  0  0  0  0  0  0  0  0  0  0  0  0  0  0  0  0  0  0
      0  0  0  0  0  0  0  0  0  0  0  0  0  0  0  0  0  0  0  0
      0  0  0  0  0  0  0  0  0  0  0  0  0  0  0  0  0  0  0  0
      0  0  0  0  0  0  0  0  0  0  0  0  0  0  0  0  0  0  0  0
      0  0  0  0  0  0  0  0  0  0  0  0  0  0  0  0  0  0  0  0
      0  0  0  0  0  0  0  0  0  0  0  0  0  0  0  0  0  0  0  0
      0  0  0  0  0  0  0  0  0  0  0  0  0  0  0  0  0  0  0  0
    INTERNAL  FACTOR  1
      0  0  0  0  0  0  0  0  0  0  0  0  0  0  0  0  0  0  0  0
      0  0  0  0  0  0  0  0  0  0  0  0  0  0  0  0  0  0  0  0
      0  0  0  0  0  0  0  0  0  0  0  0  0  0  0  0  0  0  0  0
      0  0  0  0  0  0  0  0  0  0  0  0  0  0  0  0  0  0  0  0
      0  0  0  0  0  0  0  0  0  0  0  0  0  0  0  0  0  0  0  0
      0  0  0  0  0  0  0  0  0  0  0  0  0  0  0  0  0  0  0  0
      0  0  0  0  0  0  0  0  0  0  0  0  0  0  0  0  0  0  0  0
      0  0  0  0  0  0  0  0  0  0  0  0  0  0  0  0  0  0  0  0
      0  0  0  0  0  0  0  0  0  0  0  0  0  0  0  0  1  1  1  1
      1  1  1  1  1  1  1  1  0  0  0  0  0  0  0  0  0  0  0  0
      0  0  0  0  0  1  1  1  1  1  1  1  1  1  1  1  1  1  1  1
      1  1  1  1  1  1  1  1  0  0  0  0  0  0  0  0  0  0  0  0
      0  0  0  0  0  1  1  1  1  1  1  1  1  1  1  1  1  1  1  1
      1  1  1  1  1  1  1  1  0  0  0  0  0  0  0  0  0  0  0  0
      0  0  0  0  0  1  1  1  1  1  1  1  1  1  1  1  1  1  1  1
      1  1  1  1  1  1  1  1  0  0  0  0  0  0  0  0  0  0  0  0
      0  0  0  0  0  1  1  1  1  1  1  1  1  1  1  1  1  1  1  1
      1  1  1  1  1  1  1  0  0  0  0  0  0  0  0  0  0  0  0  0
      0  0  0  0  0  1  1  1  1  1  1  1  1  1  1  1  1  1  1  1
      1  1  1  1  1  1  1  0  0  0  0  0  0  0  0  0  0  0  0  0
      0  0  0  0  0  1  1  1  1  1  1  1  1  1  1  1  1  1  1  1
      1  1  1  1  1  1  1  0  0  0  0  0  0  0  0  0  0  0  0  0
      0  0  0  0  0  1  1  1  1  1  1  1  1  1  1  1  1  1  1  1
      1  1  1  1  1  1  1  0  0  0  0  0  0  0  0  0  0  0  0  0
      0  0  0  0  0  1  1  1  1  1  1  1  1  1  1  1  1  1  1  1
      1  1  1  1  1  1  1  0  0  0  0  0  0  0  0  0  0  0  0  0
      0  0  0  0  0  1  1  1  1  1  1  1  1  1  1  1  1  1  1  1
      1  1  1  1  1  1  1  0  0  0  0  0  0  0  0  0  0  0  0  0
      0  0  0  0  0  1  1  1  1  1  1  1  1  1  1  1  1  1  1  1
      1  1  1  1  1  1  1  0  0  0  0  0  0  0  0  0  0  0  0  0
      0  0  0  0  0  1  1  1  1  1  1  1  1  1  1  1  1  1  1  1
      1  1  1  1  1  1  0  0  0  0  0  0  0  0  0  0  0  0  0  0
      0  0  0  0  0  1  1  1  1  1  1  1  1  1  1  1  1  1  1  1
      1  1  1  1  1  1  0  0  0  0  0  0  0  0  0  0  0  0  0  0
      0  0  0  0  0  1  1  1  1  1  1  1  1  1  1  1  1  1  1  1
      1  1  1  1  1  1  0  0  0  0  0  0  0  0  0  0  0  0  0  0
      0  0  0  0  0  1  1  1  1  1  1  1  1  1  1  1  1  1  1  1
      1  1  1  1  1  1  0  0  0  0  0  0  0  0  0  0  0  0  0  0
      0  0  0  0  0  1  1  1  1  1  1  1  1  1  1  1  1  1  1  1
      1  1  1  1  1  1  0  0  0  0  0  0  0  0  0  0  0  0  0  0
      0  0  0  0  0  1  1  1  1  1  1  1  1  1  1  1  1  1  1  1
      1  1  1  1  1  1  0  0  0  0  0  0  0  0  0  0  0  0  0  0
      0  0  0  0  0  1  1  1  1  1  1  1  1  1  1  1  1  1  1  1
      1  1  1  1  1  1  0  0  0  0  0  0  0  0  0  0  0  0  0  0
      0  0  0  0  0  0  1  1  1  1  1  1  1  1  1  1  1  1  1  1
      1  1  1  1  1  0  0  0  0  0  0  0  0  0  0  0  0  0  0  0
      0  0  0  0  0  0  1  1  1  1  1  1  1  1  1  1  1  1  1  1
      1  0  0  0  0  0  0  0  0  0  0  0  0  0  0  0  0  0  0  0
      0  0  0  0  0  0  1  1  1  1  1  1  1  1  1  1  0  0  0  0
      0  0  0  0  0  0  0  0  0  0  0  0  0  0  0  0  0  0  0  0
      0  0  0  0  0  0  1  1  1  1  1  0  0  0  0  0  0  0  0  0
      0  0  0  0  0  0  0  0  0  0  0  0  0  0  0  0  0  0  0  0
      0  0  0  0  0  0  0  0  0  0  0  0  0  0  0  0  0  0  0  0
      0  0  0  0  0  0  0  0  0  0  0  0  0  0  0  0  0  0  0  0
      0  0  0  0  0  0  0  0  0  0  0  0  0  0  0  0  0  0  0  0
      0  0  0  0  0  0  0  0  0  0  0  0  0  0  0  0  0  0  0  0
      0  0  0  0  0  0  0  0  0  0  0  0  0  0  0  0  0  0  0  0
      0  0  0  0  0  0  0  0  0  0  0  0  0  0  0  0  0  0  0  0
      0  0  0  0  0  0  0  0  0  0  0  0  0  0  0  0  0  0  0  0
      0  0  0  0  0  0  0  0  0  0  0  0  0  0  0  0  0  0  0  0
END griddata

