# File generated by Flopy version 3.3.2 on 01/09/2021 at 16:16:14.
BEGIN options
  BUDGET  FILEOUT  tuto_dis.cbc
  HEAD  FILEOUT  tuto_dis.hds
END options

BEGIN period  1
  SAVE  HEAD  LAST
  SAVE  BUDGET  LAST
  PRINT  BUDGET  ALL
END period  1

