# File generated by Flopy version 3.3.2 on 01/09/2021 at 16:16:14.
BEGIN options
  SAVE_FLOWS
END options

BEGIN dimensions
  MAXBOUND  1
END dimensions

BEGIN period  1
  3 16 16      -0.00550000
END period  1

