# File generated by Flopy version 3.3.2 on 01/09/2021 at 16:16:14.
BEGIN options
END options

BEGIN packages
  DIS6  tuto_dis.dis  dis
  IC6  tuto_dis.ic  ic
  OC6  tuto_dis.oc  oc
  NPF6  tuto_dis.npf  npf
  WEL6  tuto_dis.wel  wel
  CHD6  tuto_dis.chd  bcs
END packages

