# File generated by Flopy version 3.3.2 on 01/09/2021 at 16:36:19.
BEGIN options
  PRINT_OPTION  summary
  COMPLEXITY  moderate
END options

