BEGIN options
  PRINT_OPTION  summary
  COMPLEXITY  complex
END options

