BEGIN options
END options

BEGIN dimensions
  NLAY  1
  NCPL  1874
  NVERT  2266
END dimensions

BEGIN griddata
  top
    CONSTANT      50.00000000
  botm
    CONSTANT     -50.00000000
  idomain
    CONSTANT  1
END griddata

BEGIN vertices
  1  7.01000000E+05  6.20400000E+06
  2  7.02000000E+05  6.20400000E+06
  3  7.02000000E+05  6.20300000E+06
  4  7.01000000E+05  6.20300000E+06
  5  7.03000000E+05  6.20400000E+06
  6  7.03000000E+05  6.20300000E+06
  7  7.04000000E+05  6.20400000E+06
  8  7.04000000E+05  6.20300000E+06
  9  7.05000000E+05  6.20400000E+06
  10  7.05000000E+05  6.20300000E+06
  11  7.02000000E+05  6.20200000E+06
  12  7.01000000E+05  6.20200000E+06
  13  7.03000000E+05  6.20200000E+06
  14  7.04000000E+05  6.20200000E+06
  15  7.05000000E+05  6.20200000E+06
  16  7.02000000E+05  6.20100000E+06
  17  7.01000000E+05  6.20100000E+06
  18  7.03000000E+05  6.20100000E+06
  19  7.04000000E+05  6.20100000E+06
  20  7.05000000E+05  6.20100000E+06
  21  7.03000000E+05  6.20000000E+06
  22  7.02000000E+05  6.20000000E+06
  23  7.04000000E+05  6.20000000E+06
  24  7.05000000E+05  6.20000000E+06
  25  7.00000000E+05  6.20000000E+06
  26  7.01000000E+05  6.20000000E+06
  27  7.01000000E+05  6.19900000E+06
  28  7.00000000E+05  6.19900000E+06
  29  7.02000000E+05  6.19900000E+06
  30  7.03000000E+05  6.19900000E+06
  31  7.04000000E+05  6.19900000E+06
  32  7.05000000E+05  6.19900000E+06
  33  7.01000000E+05  6.19800000E+06
  34  7.00000000E+05  6.19800000E+06
  35  7.02000000E+05  6.19800000E+06
  36  7.03000000E+05  6.19800000E+06
  37  7.04000000E+05  6.19800000E+06
  38  7.05000000E+05  6.19800000E+06
  39  6.99000000E+05  6.19800000E+06
  40  7.00000000E+05  6.19700000E+06
  41  6.99000000E+05  6.19700000E+06
  42  7.01000000E+05  6.19700000E+06
  43  7.02000000E+05  6.19700000E+06
  44  7.03000000E+05  6.19700000E+06
  45  7.04000000E+05  6.19700000E+06
  46  7.05000000E+05  6.19700000E+06
  47  6.98000000E+05  6.19700000E+06
  48  6.99000000E+05  6.19600000E+06
  49  6.98000000E+05  6.19600000E+06
  50  7.00000000E+05  6.19600000E+06
  51  7.01000000E+05  6.19600000E+06
  52  7.02000000E+05  6.19600000E+06
  53  7.03000000E+05  6.19600000E+06
  54  7.04000000E+05  6.19600000E+06
  55  7.05000000E+05  6.19600000E+06
  56  6.95000000E+05  6.19600000E+06
  57  6.96000000E+05  6.19600000E+06
  58  6.96000000E+05  6.19500000E+06
  59  6.95000000E+05  6.19500000E+06
  60  6.97000000E+05  6.19600000E+06
  61  6.97000000E+05  6.19500000E+06
  62  6.97500000E+05  6.19600000E+06
  63  6.97500000E+05  6.19550000E+06
  64  6.97000000E+05  6.19550000E+06
  65  6.98000000E+05  6.19550000E+06
  66  6.97500000E+05  6.19500000E+06
  67  6.98000000E+05  6.19500000E+06
  68  6.99000000E+05  6.19500000E+06
  69  7.00000000E+05  6.19500000E+06
  70  7.01000000E+05  6.19500000E+06
  71  7.02000000E+05  6.19500000E+06
  72  7.02500000E+05  6.19600000E+06
  73  7.02500000E+05  6.19550000E+06
  74  7.02000000E+05  6.19550000E+06
  75  7.03000000E+05  6.19550000E+06
  76  7.02500000E+05  6.19500000E+06
  77  7.03000000E+05  6.19500000E+06
  78  7.03500000E+05  6.19600000E+06
  79  7.03500000E+05  6.19550000E+06
  80  7.04000000E+05  6.19550000E+06
  81  7.03250000E+05  6.19550000E+06
  82  7.03250000E+05  6.19525000E+06
  83  7.03000000E+05  6.19525000E+06
  84  7.03500000E+05  6.19525000E+06
  85  7.03250000E+05  6.19500000E+06
  86  7.03500000E+05  6.19500000E+06
  87  7.03750000E+05  6.19550000E+06
  88  7.03750000E+05  6.19525000E+06
  89  7.04000000E+05  6.19525000E+06
  90  7.03625000E+05  6.19525000E+06
  91  7.03625000E+05  6.19512500E+06
  92  7.03500000E+05  6.19512500E+06
  93  7.03750000E+05  6.19512500E+06
  94  7.03625000E+05  6.19500000E+06
  95  7.03750000E+05  6.19500000E+06
  96  7.04000000E+05  6.19500000E+06
  97  6.93000000E+05  6.19500000E+06
  98  6.94000000E+05  6.19500000E+06
  99  6.94000000E+05  6.19400000E+06
  100  6.93000000E+05  6.19400000E+06
  101  6.95000000E+05  6.19400000E+06
  102  6.96000000E+05  6.19400000E+06
  103  6.96500000E+05  6.19500000E+06
  104  6.96500000E+05  6.19450000E+06
  105  6.96000000E+05  6.19450000E+06
  106  6.97000000E+05  6.19450000E+06
  107  6.96500000E+05  6.19400000E+06
  108  6.97000000E+05  6.19400000E+06
  109  6.97500000E+05  6.19450000E+06
  110  6.97750000E+05  6.19500000E+06
  111  6.97750000E+05  6.19475000E+06
  112  6.97500000E+05  6.19475000E+06
  113  6.98000000E+05  6.19475000E+06
  114  6.97750000E+05  6.19450000E+06
  115  6.98000000E+05  6.19450000E+06
  116  6.97250000E+05  6.19450000E+06
  117  6.97250000E+05  6.19425000E+06
  118  6.97000000E+05  6.19425000E+06
  119  6.97500000E+05  6.19425000E+06
  120  6.97250000E+05  6.19400000E+06
  121  6.97500000E+05  6.19400000E+06
  122  6.97625000E+05  6.19450000E+06
  123  6.97625000E+05  6.19437500E+06
  124  6.97500000E+05  6.19437500E+06
  125  6.97750000E+05  6.19437500E+06
  126  6.97625000E+05  6.19425000E+06
  127  6.97750000E+05  6.19425000E+06
  128  6.98000000E+05  6.19425000E+06
  129  6.97750000E+05  6.19400000E+06
  130  6.98000000E+05  6.19400000E+06
  131  6.98500000E+05  6.19500000E+06
  132  6.98500000E+05  6.19450000E+06
  133  6.99000000E+05  6.19450000E+06
  134  6.98500000E+05  6.19400000E+06
  135  6.99000000E+05  6.19400000E+06
  136  7.00000000E+05  6.19400000E+06
  137  7.01000000E+05  6.19400000E+06
  138  7.02000000E+05  6.19400000E+06
  139  7.03000000E+05  6.19400000E+06
  140  7.03500000E+05  6.19450000E+06
  141  7.03000000E+05  6.19450000E+06
  142  7.03750000E+05  6.19475000E+06
  143  7.03500000E+05  6.19475000E+06
  144  7.04000000E+05  6.19475000E+06
  145  7.03750000E+05  6.19450000E+06
  146  7.04000000E+05  6.19450000E+06
  147  7.03500000E+05  6.19400000E+06
  148  7.04000000E+05  6.19400000E+06
  149  6.94000000E+05  6.19300000E+06
  150  6.93000000E+05  6.19300000E+06
  151  6.95000000E+05  6.19300000E+06
  152  6.96000000E+05  6.19300000E+06
  153  6.97000000E+05  6.19300000E+06
  154  6.97500000E+05  6.19350000E+06
  155  6.97000000E+05  6.19350000E+06
  156  6.98000000E+05  6.19350000E+06
  157  6.97500000E+05  6.19300000E+06
  158  6.98000000E+05  6.19300000E+06
  159  6.99000000E+05  6.19300000E+06
  160  7.00000000E+05  6.19300000E+06
  161  7.01000000E+05  6.19300000E+06
  162  7.02000000E+05  6.19300000E+06
  163  7.03000000E+05  6.19300000E+06
  164  7.04000000E+05  6.19300000E+06
  165  6.91000000E+05  6.19300000E+06
  166  6.92000000E+05  6.19300000E+06
  167  6.92000000E+05  6.19200000E+06
  168  6.91000000E+05  6.19200000E+06
  169  6.93000000E+05  6.19200000E+06
  170  6.94000000E+05  6.19200000E+06
  171  6.95000000E+05  6.19200000E+06
  172  6.96000000E+05  6.19200000E+06
  173  6.97000000E+05  6.19200000E+06
  174  6.98000000E+05  6.19200000E+06
  175  6.99000000E+05  6.19200000E+06
  176  7.00000000E+05  6.19200000E+06
  177  7.01000000E+05  6.19200000E+06
  178  7.02000000E+05  6.19200000E+06
  179  7.03000000E+05  6.19200000E+06
  180  7.04000000E+05  6.19200000E+06
  181  6.92000000E+05  6.19100000E+06
  182  6.91000000E+05  6.19100000E+06
  183  6.93000000E+05  6.19100000E+06
  184  6.94000000E+05  6.19100000E+06
  185  6.95000000E+05  6.19100000E+06
  186  6.96000000E+05  6.19100000E+06
  187  6.97000000E+05  6.19100000E+06
  188  6.98000000E+05  6.19100000E+06
  189  6.99000000E+05  6.19100000E+06
  190  7.00000000E+05  6.19100000E+06
  191  7.01000000E+05  6.19100000E+06
  192  7.02000000E+05  6.19100000E+06
  193  7.03000000E+05  6.19100000E+06
  194  7.04000000E+05  6.19100000E+06
  195  6.86000000E+05  6.19100000E+06
  196  6.87000000E+05  6.19100000E+06
  197  6.87000000E+05  6.19000000E+06
  198  6.86000000E+05  6.19000000E+06
  199  6.88000000E+05  6.19100000E+06
  200  6.88000000E+05  6.19000000E+06
  201  6.89000000E+05  6.19100000E+06
  202  6.89000000E+05  6.19000000E+06
  203  6.90000000E+05  6.19100000E+06
  204  6.90000000E+05  6.19000000E+06
  205  6.91000000E+05  6.19000000E+06
  206  6.92000000E+05  6.19000000E+06
  207  6.93000000E+05  6.19000000E+06
  208  6.94000000E+05  6.19000000E+06
  209  6.95000000E+05  6.19000000E+06
  210  6.96000000E+05  6.19000000E+06
  211  6.97000000E+05  6.19000000E+06
  212  6.98000000E+05  6.19000000E+06
  213  6.99000000E+05  6.19000000E+06
  214  7.00000000E+05  6.19000000E+06
  215  7.01000000E+05  6.19000000E+06
  216  7.02000000E+05  6.19000000E+06
  217  7.03000000E+05  6.19000000E+06
  218  7.04000000E+05  6.19000000E+06
  219  6.87000000E+05  6.18900000E+06
  220  6.86000000E+05  6.18900000E+06
  221  6.88000000E+05  6.18900000E+06
  222  6.89000000E+05  6.18900000E+06
  223  6.90000000E+05  6.18900000E+06
  224  6.91000000E+05  6.18900000E+06
  225  6.92000000E+05  6.18900000E+06
  226  6.93000000E+05  6.18900000E+06
  227  6.94000000E+05  6.18900000E+06
  228  6.95000000E+05  6.18900000E+06
  229  6.96000000E+05  6.18900000E+06
  230  6.97000000E+05  6.18900000E+06
  231  6.98000000E+05  6.18900000E+06
  232  6.99000000E+05  6.18900000E+06
  233  7.00000000E+05  6.18900000E+06
  234  7.01000000E+05  6.18900000E+06
  235  7.02000000E+05  6.18900000E+06
  236  7.03000000E+05  6.18900000E+06
  237  7.04000000E+05  6.18900000E+06
  238  6.87000000E+05  6.18800000E+06
  239  6.86000000E+05  6.18800000E+06
  240  6.88000000E+05  6.18800000E+06
  241  6.89000000E+05  6.18800000E+06
  242  6.90000000E+05  6.18800000E+06
  243  6.91000000E+05  6.18800000E+06
  244  6.92000000E+05  6.18800000E+06
  245  6.93000000E+05  6.18800000E+06
  246  6.94000000E+05  6.18800000E+06
  247  6.95000000E+05  6.18800000E+06
  248  6.96000000E+05  6.18800000E+06
  249  6.97000000E+05  6.18800000E+06
  250  6.98000000E+05  6.18800000E+06
  251  6.99000000E+05  6.18800000E+06
  252  7.00000000E+05  6.18800000E+06
  253  7.00500000E+05  6.18900000E+06
  254  7.00500000E+05  6.18850000E+06
  255  7.00000000E+05  6.18850000E+06
  256  7.01000000E+05  6.18850000E+06
  257  7.00500000E+05  6.18800000E+06
  258  7.01000000E+05  6.18800000E+06
  259  7.02000000E+05  6.18800000E+06
  260  7.03000000E+05  6.18800000E+06
  261  7.04000000E+05  6.18800000E+06
  262  6.87000000E+05  6.18700000E+06
  263  6.86000000E+05  6.18700000E+06
  264  6.88000000E+05  6.18700000E+06
  265  6.89000000E+05  6.18700000E+06
  266  6.90000000E+05  6.18700000E+06
  267  6.91000000E+05  6.18700000E+06
  268  6.92000000E+05  6.18700000E+06
  269  6.93000000E+05  6.18700000E+06
  270  6.94000000E+05  6.18700000E+06
  271  6.95000000E+05  6.18700000E+06
  272  6.96000000E+05  6.18700000E+06
  273  6.97000000E+05  6.18700000E+06
  274  6.98000000E+05  6.18700000E+06
  275  6.99000000E+05  6.18700000E+06
  276  7.00000000E+05  6.18700000E+06
  277  7.00500000E+05  6.18750000E+06
  278  7.00000000E+05  6.18750000E+06
  279  7.00750000E+05  6.18800000E+06
  280  7.00750000E+05  6.18775000E+06
  281  7.00500000E+05  6.18775000E+06
  282  7.01000000E+05  6.18775000E+06
  283  7.00750000E+05  6.18750000E+06
  284  7.01000000E+05  6.18750000E+06
  285  7.00500000E+05  6.18700000E+06
  286  7.00750000E+05  6.18725000E+06
  287  7.00500000E+05  6.18725000E+06
  288  7.00875000E+05  6.18750000E+06
  289  7.00875000E+05  6.18737500E+06
  290  7.00750000E+05  6.18737500E+06
  291  7.01000000E+05  6.18737500E+06
  292  7.00875000E+05  6.18725000E+06
  293  7.01000000E+05  6.18725000E+06
  294  7.00750000E+05  6.18700000E+06
  295  7.01000000E+05  6.18700000E+06
  296  7.01500000E+05  6.18800000E+06
  297  7.01500000E+05  6.18750000E+06
  298  7.02000000E+05  6.18750000E+06
  299  7.01250000E+05  6.18750000E+06
  300  7.01250000E+05  6.18725000E+06
  301  7.01500000E+05  6.18725000E+06
  302  7.01250000E+05  6.18700000E+06
  303  7.01500000E+05  6.18700000E+06
  304  7.02000000E+05  6.18700000E+06
  305  7.03000000E+05  6.18700000E+06
  306  7.04000000E+05  6.18700000E+06
  307  6.85500000E+05  6.18700000E+06
  308  6.86000000E+05  6.18650000E+06
  309  6.85500000E+05  6.18650000E+06
  310  6.85000000E+05  6.18650000E+06
  311  6.85500000E+05  6.18600000E+06
  312  6.85000000E+05  6.18600000E+06
  313  6.86000000E+05  6.18600000E+06
  314  6.87000000E+05  6.18600000E+06
  315  6.88000000E+05  6.18600000E+06
  316  6.89000000E+05  6.18600000E+06
  317  6.90000000E+05  6.18600000E+06
  318  6.91000000E+05  6.18600000E+06
  319  6.92000000E+05  6.18600000E+06
  320  6.93000000E+05  6.18600000E+06
  321  6.94000000E+05  6.18600000E+06
  322  6.95000000E+05  6.18600000E+06
  323  6.96000000E+05  6.18600000E+06
  324  6.97000000E+05  6.18600000E+06
  325  6.98000000E+05  6.18600000E+06
  326  6.99000000E+05  6.18600000E+06
  327  7.00000000E+05  6.18600000E+06
  328  7.00500000E+05  6.18650000E+06
  329  7.00000000E+05  6.18650000E+06
  330  7.01000000E+05  6.18650000E+06
  331  7.00500000E+05  6.18600000E+06
  332  7.00750000E+05  6.18650000E+06
  333  7.00750000E+05  6.18625000E+06
  334  7.00500000E+05  6.18625000E+06
  335  7.01000000E+05  6.18625000E+06
  336  7.00750000E+05  6.18600000E+06
  337  7.01000000E+05  6.18600000E+06
  338  7.01500000E+05  6.18650000E+06
  339  7.02000000E+05  6.18650000E+06
  340  7.01250000E+05  6.18650000E+06
  341  7.01250000E+05  6.18625000E+06
  342  7.01500000E+05  6.18625000E+06
  343  7.01125000E+05  6.18625000E+06
  344  7.01125000E+05  6.18612500E+06
  345  7.01000000E+05  6.18612500E+06
  346  7.01250000E+05  6.18612500E+06
  347  7.01125000E+05  6.18600000E+06
  348  7.01250000E+05  6.18600000E+06
  349  7.01500000E+05  6.18600000E+06
  350  7.02000000E+05  6.18600000E+06
  351  7.03000000E+05  6.18600000E+06
  352  7.04000000E+05  6.18600000E+06
  353  6.86000000E+05  6.18500000E+06
  354  6.85000000E+05  6.18500000E+06
  355  6.87000000E+05  6.18500000E+06
  356  6.88000000E+05  6.18500000E+06
  357  6.89000000E+05  6.18500000E+06
  358  6.90000000E+05  6.18500000E+06
  359  6.91000000E+05  6.18500000E+06
  360  6.92000000E+05  6.18500000E+06
  361  6.93000000E+05  6.18500000E+06
  362  6.94000000E+05  6.18500000E+06
  363  6.95000000E+05  6.18500000E+06
  364  6.96000000E+05  6.18500000E+06
  365  6.97000000E+05  6.18500000E+06
  366  6.98000000E+05  6.18500000E+06
  367  6.99000000E+05  6.18500000E+06
  368  7.00000000E+05  6.18500000E+06
  369  7.00500000E+05  6.18550000E+06
  370  7.00000000E+05  6.18550000E+06
  371  7.01000000E+05  6.18550000E+06
  372  7.00500000E+05  6.18500000E+06
  373  7.01000000E+05  6.18500000E+06
  374  7.01250000E+05  6.18575000E+06
  375  7.01000000E+05  6.18575000E+06
  376  7.01500000E+05  6.18575000E+06
  377  7.01250000E+05  6.18550000E+06
  378  7.01500000E+05  6.18550000E+06
  379  7.02000000E+05  6.18550000E+06
  380  7.01500000E+05  6.18500000E+06
  381  7.02000000E+05  6.18500000E+06
  382  7.03000000E+05  6.18500000E+06
  383  7.04000000E+05  6.18500000E+06
  384  6.83000000E+05  6.18500000E+06
  385  6.84000000E+05  6.18500000E+06
  386  6.84000000E+05  6.18400000E+06
  387  6.83000000E+05  6.18400000E+06
  388  6.85000000E+05  6.18400000E+06
  389  6.86000000E+05  6.18400000E+06
  390  6.87000000E+05  6.18400000E+06
  391  6.87500000E+05  6.18500000E+06
  392  6.87500000E+05  6.18450000E+06
  393  6.87000000E+05  6.18450000E+06
  394  6.88000000E+05  6.18450000E+06
  395  6.87500000E+05  6.18400000E+06
  396  6.88000000E+05  6.18400000E+06
  397  6.88500000E+05  6.18500000E+06
  398  6.88500000E+05  6.18450000E+06
  399  6.89000000E+05  6.18450000E+06
  400  6.88500000E+05  6.18400000E+06
  401  6.89000000E+05  6.18400000E+06
  402  6.90000000E+05  6.18400000E+06
  403  6.91000000E+05  6.18400000E+06
  404  6.92000000E+05  6.18400000E+06
  405  6.93000000E+05  6.18400000E+06
  406  6.94000000E+05  6.18400000E+06
  407  6.95000000E+05  6.18400000E+06
  408  6.96000000E+05  6.18400000E+06
  409  6.97000000E+05  6.18400000E+06
  410  6.98000000E+05  6.18400000E+06
  411  6.99000000E+05  6.18400000E+06
  412  7.00000000E+05  6.18400000E+06
  413  7.01000000E+05  6.18400000E+06
  414  7.02000000E+05  6.18400000E+06
  415  7.03000000E+05  6.18400000E+06
  416  7.04000000E+05  6.18400000E+06
  417  6.81000000E+05  6.18400000E+06
  418  6.82000000E+05  6.18400000E+06
  419  6.82000000E+05  6.18300000E+06
  420  6.81000000E+05  6.18300000E+06
  421  6.83000000E+05  6.18300000E+06
  422  6.84000000E+05  6.18300000E+06
  423  6.85000000E+05  6.18300000E+06
  424  6.86000000E+05  6.18300000E+06
  425  6.87000000E+05  6.18300000E+06
  426  6.87500000E+05  6.18350000E+06
  427  6.87000000E+05  6.18350000E+06
  428  6.87750000E+05  6.18400000E+06
  429  6.87750000E+05  6.18375000E+06
  430  6.87500000E+05  6.18375000E+06
  431  6.88000000E+05  6.18375000E+06
  432  6.87750000E+05  6.18350000E+06
  433  6.87875000E+05  6.18375000E+06
  434  6.87875000E+05  6.18362500E+06
  435  6.87750000E+05  6.18362500E+06
  436  6.88000000E+05  6.18362500E+06
  437  6.87875000E+05  6.18350000E+06
  438  6.88000000E+05  6.18350000E+06
  439  6.87500000E+05  6.18300000E+06
  440  6.87750000E+05  6.18325000E+06
  441  6.87500000E+05  6.18325000E+06
  442  6.88000000E+05  6.18325000E+06
  443  6.87750000E+05  6.18300000E+06
  444  6.88000000E+05  6.18300000E+06
  445  6.88250000E+05  6.18400000E+06
  446  6.88250000E+05  6.18375000E+06
  447  6.88500000E+05  6.18375000E+06
  448  6.88250000E+05  6.18350000E+06
  449  6.88500000E+05  6.18350000E+06
  450  6.89000000E+05  6.18350000E+06
  451  6.88500000E+05  6.18300000E+06
  452  6.89000000E+05  6.18300000E+06
  453  6.90000000E+05  6.18300000E+06
  454  6.91000000E+05  6.18300000E+06
  455  6.92000000E+05  6.18300000E+06
  456  6.93000000E+05  6.18300000E+06
  457  6.94000000E+05  6.18300000E+06
  458  6.95000000E+05  6.18300000E+06
  459  6.96000000E+05  6.18300000E+06
  460  6.97000000E+05  6.18300000E+06
  461  6.98000000E+05  6.18300000E+06
  462  6.99000000E+05  6.18300000E+06
  463  7.00000000E+05  6.18300000E+06
  464  7.01000000E+05  6.18300000E+06
  465  7.02000000E+05  6.18300000E+06
  466  7.03000000E+05  6.18300000E+06
  467  7.04000000E+05  6.18300000E+06
  468  6.83000000E+05  6.18200000E+06
  469  6.82000000E+05  6.18200000E+06
  470  6.84000000E+05  6.18200000E+06
  471  6.85000000E+05  6.18200000E+06
  472  6.86000000E+05  6.18200000E+06
  473  6.87000000E+05  6.18200000E+06
  474  6.87500000E+05  6.18250000E+06
  475  6.87000000E+05  6.18250000E+06
  476  6.88000000E+05  6.18250000E+06
  477  6.87500000E+05  6.18200000E+06
  478  6.88000000E+05  6.18200000E+06
  479  6.89000000E+05  6.18200000E+06
  480  6.90000000E+05  6.18200000E+06
  481  6.91000000E+05  6.18200000E+06
  482  6.92000000E+05  6.18200000E+06
  483  6.93000000E+05  6.18200000E+06
  484  6.94000000E+05  6.18200000E+06
  485  6.95000000E+05  6.18200000E+06
  486  6.96000000E+05  6.18200000E+06
  487  6.97000000E+05  6.18200000E+06
  488  6.98000000E+05  6.18200000E+06
  489  6.99000000E+05  6.18200000E+06
  490  7.00000000E+05  6.18200000E+06
  491  7.01000000E+05  6.18200000E+06
  492  7.02000000E+05  6.18200000E+06
  493  7.03000000E+05  6.18200000E+06
  494  7.04000000E+05  6.18200000E+06
  495  6.79000000E+05  6.18200000E+06
  496  6.80000000E+05  6.18200000E+06
  497  6.80000000E+05  6.18100000E+06
  498  6.79000000E+05  6.18100000E+06
  499  6.81000000E+05  6.18200000E+06
  500  6.81000000E+05  6.18100000E+06
  501  6.82000000E+05  6.18100000E+06
  502  6.83000000E+05  6.18100000E+06
  503  6.84000000E+05  6.18100000E+06
  504  6.85000000E+05  6.18100000E+06
  505  6.86000000E+05  6.18100000E+06
  506  6.87000000E+05  6.18100000E+06
  507  6.88000000E+05  6.18100000E+06
  508  6.89000000E+05  6.18100000E+06
  509  6.90000000E+05  6.18100000E+06
  510  6.91000000E+05  6.18100000E+06
  511  6.92000000E+05  6.18100000E+06
  512  6.93000000E+05  6.18100000E+06
  513  6.94000000E+05  6.18100000E+06
  514  6.95000000E+05  6.18100000E+06
  515  6.96000000E+05  6.18100000E+06
  516  6.97000000E+05  6.18100000E+06
  517  6.98000000E+05  6.18100000E+06
  518  6.99000000E+05  6.18100000E+06
  519  7.00000000E+05  6.18100000E+06
  520  7.01000000E+05  6.18100000E+06
  521  7.02000000E+05  6.18100000E+06
  522  7.03000000E+05  6.18100000E+06
  523  7.04000000E+05  6.18100000E+06
  524  6.77000000E+05  6.18100000E+06
  525  6.78000000E+05  6.18100000E+06
  526  6.78000000E+05  6.18000000E+06
  527  6.77000000E+05  6.18000000E+06
  528  6.79000000E+05  6.18000000E+06
  529  6.80000000E+05  6.18000000E+06
  530  6.81000000E+05  6.18000000E+06
  531  6.82000000E+05  6.18000000E+06
  532  6.83000000E+05  6.18000000E+06
  533  6.84000000E+05  6.18000000E+06
  534  6.85000000E+05  6.18000000E+06
  535  6.86000000E+05  6.18000000E+06
  536  6.87000000E+05  6.18000000E+06
  537  6.88000000E+05  6.18000000E+06
  538  6.89000000E+05  6.18000000E+06
  539  6.90000000E+05  6.18000000E+06
  540  6.91000000E+05  6.18000000E+06
  541  6.91500000E+05  6.18100000E+06
  542  6.91500000E+05  6.18050000E+06
  543  6.91000000E+05  6.18050000E+06
  544  6.92000000E+05  6.18050000E+06
  545  6.91500000E+05  6.18000000E+06
  546  6.91750000E+05  6.18050000E+06
  547  6.91750000E+05  6.18025000E+06
  548  6.91500000E+05  6.18025000E+06
  549  6.92000000E+05  6.18025000E+06
  550  6.91750000E+05  6.18000000E+06
  551  6.92000000E+05  6.18000000E+06
  552  6.92500000E+05  6.18100000E+06
  553  6.92500000E+05  6.18050000E+06
  554  6.93000000E+05  6.18050000E+06
  555  6.92250000E+05  6.18050000E+06
  556  6.92250000E+05  6.18025000E+06
  557  6.92500000E+05  6.18025000E+06
  558  6.92125000E+05  6.18025000E+06
  559  6.92125000E+05  6.18012500E+06
  560  6.92000000E+05  6.18012500E+06
  561  6.92250000E+05  6.18012500E+06
  562  6.92125000E+05  6.18000000E+06
  563  6.92250000E+05  6.18000000E+06
  564  6.92500000E+05  6.18000000E+06
  565  6.93000000E+05  6.18000000E+06
  566  6.94000000E+05  6.18000000E+06
  567  6.94500000E+05  6.18100000E+06
  568  6.94500000E+05  6.18050000E+06
  569  6.94000000E+05  6.18050000E+06
  570  6.95000000E+05  6.18050000E+06
  571  6.94500000E+05  6.18000000E+06
  572  6.95000000E+05  6.18000000E+06
  573  6.95500000E+05  6.18100000E+06
  574  6.95500000E+05  6.18050000E+06
  575  6.96000000E+05  6.18050000E+06
  576  6.95500000E+05  6.18000000E+06
  577  6.96000000E+05  6.18000000E+06
  578  6.97000000E+05  6.18000000E+06
  579  6.98000000E+05  6.18000000E+06
  580  6.99000000E+05  6.18000000E+06
  581  7.00000000E+05  6.18000000E+06
  582  7.00500000E+05  6.18100000E+06
  583  7.00500000E+05  6.18050000E+06
  584  7.00000000E+05  6.18050000E+06
  585  7.01000000E+05  6.18050000E+06
  586  7.00500000E+05  6.18000000E+06
  587  7.01000000E+05  6.18000000E+06
  588  7.01500000E+05  6.18100000E+06
  589  7.01500000E+05  6.18050000E+06
  590  7.02000000E+05  6.18050000E+06
  591  7.01500000E+05  6.18000000E+06
  592  7.02000000E+05  6.18000000E+06
  593  7.03000000E+05  6.18000000E+06
  594  7.03500000E+05  6.18100000E+06
  595  7.03500000E+05  6.18050000E+06
  596  7.03000000E+05  6.18050000E+06
  597  7.03500000E+05  6.18000000E+06
  598  6.73000000E+05  6.18000000E+06
  599  6.74000000E+05  6.18000000E+06
  600  6.74000000E+05  6.17900000E+06
  601  6.73000000E+05  6.17900000E+06
  602  6.75000000E+05  6.18000000E+06
  603  6.75000000E+05  6.17900000E+06
  604  6.76000000E+05  6.18000000E+06
  605  6.76000000E+05  6.17900000E+06
  606  6.77000000E+05  6.17900000E+06
  607  6.78000000E+05  6.17900000E+06
  608  6.79000000E+05  6.17900000E+06
  609  6.80000000E+05  6.17900000E+06
  610  6.81000000E+05  6.17900000E+06
  611  6.82000000E+05  6.17900000E+06
  612  6.83000000E+05  6.17900000E+06
  613  6.84000000E+05  6.17900000E+06
  614  6.85000000E+05  6.17900000E+06
  615  6.86000000E+05  6.17900000E+06
  616  6.87000000E+05  6.17900000E+06
  617  6.88000000E+05  6.17900000E+06
  618  6.89000000E+05  6.17900000E+06
  619  6.90000000E+05  6.17900000E+06
  620  6.91000000E+05  6.17900000E+06
  621  6.91500000E+05  6.17950000E+06
  622  6.91000000E+05  6.17950000E+06
  623  6.92000000E+05  6.17950000E+06
  624  6.91500000E+05  6.17900000E+06
  625  6.92000000E+05  6.17900000E+06
  626  6.92250000E+05  6.17975000E+06
  627  6.92000000E+05  6.17975000E+06
  628  6.92500000E+05  6.17975000E+06
  629  6.92250000E+05  6.17950000E+06
  630  6.92500000E+05  6.17950000E+06
  631  6.93000000E+05  6.17950000E+06
  632  6.92500000E+05  6.17900000E+06
  633  6.93000000E+05  6.17900000E+06
  634  6.93500000E+05  6.18000000E+06
  635  6.93500000E+05  6.17950000E+06
  636  6.94000000E+05  6.17950000E+06
  637  6.93250000E+05  6.17950000E+06
  638  6.93250000E+05  6.17925000E+06
  639  6.93000000E+05  6.17925000E+06
  640  6.93500000E+05  6.17925000E+06
  641  6.93250000E+05  6.17900000E+06
  642  6.93500000E+05  6.17900000E+06
  643  6.93750000E+05  6.17950000E+06
  644  6.93750000E+05  6.17925000E+06
  645  6.94000000E+05  6.17925000E+06
  646  6.93750000E+05  6.17900000E+06
  647  6.94000000E+05  6.17900000E+06
  648  6.94500000E+05  6.17950000E+06
  649  6.94750000E+05  6.18000000E+06
  650  6.94750000E+05  6.17975000E+06
  651  6.94500000E+05  6.17975000E+06
  652  6.95000000E+05  6.17975000E+06
  653  6.94750000E+05  6.17950000E+06
  654  6.95000000E+05  6.17950000E+06
  655  6.94250000E+05  6.17950000E+06
  656  6.94250000E+05  6.17925000E+06
  657  6.94500000E+05  6.17925000E+06
  658  6.94250000E+05  6.17900000E+06
  659  6.94500000E+05  6.17900000E+06
  660  6.94750000E+05  6.17925000E+06
  661  6.95000000E+05  6.17925000E+06
  662  6.94750000E+05  6.17900000E+06
  663  6.95000000E+05  6.17900000E+06
  664  6.95250000E+05  6.18000000E+06
  665  6.95250000E+05  6.17975000E+06
  666  6.95500000E+05  6.17975000E+06
  667  6.95250000E+05  6.17950000E+06
  668  6.95500000E+05  6.17950000E+06
  669  6.95750000E+05  6.18000000E+06
  670  6.95750000E+05  6.17975000E+06
  671  6.96000000E+05  6.17975000E+06
  672  6.95750000E+05  6.17950000E+06
  673  6.96000000E+05  6.17950000E+06
  674  6.95500000E+05  6.17900000E+06
  675  6.95750000E+05  6.17925000E+06
  676  6.95500000E+05  6.17925000E+06
  677  6.96000000E+05  6.17925000E+06
  678  6.95750000E+05  6.17900000E+06
  679  6.96000000E+05  6.17900000E+06
  680  6.96500000E+05  6.18000000E+06
  681  6.96500000E+05  6.17950000E+06
  682  6.97000000E+05  6.17950000E+06
  683  6.96250000E+05  6.17950000E+06
  684  6.96250000E+05  6.17925000E+06
  685  6.96500000E+05  6.17925000E+06
  686  6.96250000E+05  6.17900000E+06
  687  6.96500000E+05  6.17900000E+06
  688  6.96750000E+05  6.17950000E+06
  689  6.96750000E+05  6.17925000E+06
  690  6.97000000E+05  6.17925000E+06
  691  6.96750000E+05  6.17900000E+06
  692  6.97000000E+05  6.17900000E+06
  693  6.97500000E+05  6.18000000E+06
  694  6.97500000E+05  6.17950000E+06
  695  6.98000000E+05  6.17950000E+06
  696  6.97250000E+05  6.17950000E+06
  697  6.97250000E+05  6.17925000E+06
  698  6.97500000E+05  6.17925000E+06
  699  6.97250000E+05  6.17900000E+06
  700  6.97500000E+05  6.17900000E+06
  701  6.97750000E+05  6.17950000E+06
  702  6.97750000E+05  6.17925000E+06
  703  6.98000000E+05  6.17925000E+06
  704  6.97750000E+05  6.17900000E+06
  705  6.98000000E+05  6.17900000E+06
  706  6.98500000E+05  6.18000000E+06
  707  6.98500000E+05  6.17950000E+06
  708  6.99000000E+05  6.17950000E+06
  709  6.98250000E+05  6.17950000E+06
  710  6.98250000E+05  6.17925000E+06
  711  6.98500000E+05  6.17925000E+06
  712  6.98250000E+05  6.17900000E+06
  713  6.98500000E+05  6.17900000E+06
  714  6.98750000E+05  6.17950000E+06
  715  6.98750000E+05  6.17925000E+06
  716  6.99000000E+05  6.17925000E+06
  717  6.98750000E+05  6.17900000E+06
  718  6.99000000E+05  6.17900000E+06
  719  6.99500000E+05  6.18000000E+06
  720  6.99500000E+05  6.17950000E+06
  721  7.00000000E+05  6.17950000E+06
  722  6.99250000E+05  6.17950000E+06
  723  6.99250000E+05  6.17925000E+06
  724  6.99500000E+05  6.17925000E+06
  725  6.99250000E+05  6.17900000E+06
  726  6.99500000E+05  6.17900000E+06
  727  6.99750000E+05  6.17950000E+06
  728  6.99750000E+05  6.17925000E+06
  729  7.00000000E+05  6.17925000E+06
  730  6.99750000E+05  6.17900000E+06
  731  7.00000000E+05  6.17900000E+06
  732  7.00500000E+05  6.17950000E+06
  733  7.00750000E+05  6.18000000E+06
  734  7.00750000E+05  6.17975000E+06
  735  7.00500000E+05  6.17975000E+06
  736  7.01000000E+05  6.17975000E+06
  737  7.00750000E+05  6.17950000E+06
  738  7.01000000E+05  6.17950000E+06
  739  7.00250000E+05  6.17950000E+06
  740  7.00250000E+05  6.17925000E+06
  741  7.00500000E+05  6.17925000E+06
  742  7.00250000E+05  6.17900000E+06
  743  7.00500000E+05  6.17900000E+06
  744  7.00750000E+05  6.17925000E+06
  745  7.01000000E+05  6.17925000E+06
  746  7.00750000E+05  6.17900000E+06
  747  7.01000000E+05  6.17900000E+06
  748  7.01250000E+05  6.18000000E+06
  749  7.01250000E+05  6.17975000E+06
  750  7.01500000E+05  6.17975000E+06
  751  7.01250000E+05  6.17950000E+06
  752  7.01500000E+05  6.17950000E+06
  753  7.02000000E+05  6.17950000E+06
  754  7.01250000E+05  6.17925000E+06
  755  7.01500000E+05  6.17925000E+06
  756  7.01250000E+05  6.17900000E+06
  757  7.01500000E+05  6.17900000E+06
  758  7.01750000E+05  6.17950000E+06
  759  7.01750000E+05  6.17925000E+06
  760  7.02000000E+05  6.17925000E+06
  761  7.01750000E+05  6.17900000E+06
  762  7.02000000E+05  6.17900000E+06
  763  7.02500000E+05  6.18000000E+06
  764  7.02500000E+05  6.17950000E+06
  765  7.03000000E+05  6.17950000E+06
  766  7.02500000E+05  6.17900000E+06
  767  7.02750000E+05  6.17950000E+06
  768  7.02750000E+05  6.17925000E+06
  769  7.02500000E+05  6.17925000E+06
  770  7.03000000E+05  6.17925000E+06
  771  7.02750000E+05  6.17900000E+06
  772  7.03000000E+05  6.17900000E+06
  773  7.03250000E+05  6.18000000E+06
  774  7.03250000E+05  6.17975000E+06
  775  7.03000000E+05  6.17975000E+06
  776  7.03500000E+05  6.17975000E+06
  777  7.03250000E+05  6.17950000E+06
  778  7.03500000E+05  6.17950000E+06
  779  7.03250000E+05  6.17925000E+06
  780  7.03500000E+05  6.17925000E+06
  781  7.03250000E+05  6.17900000E+06
  782  7.03500000E+05  6.17900000E+06
  783  6.71000000E+05  6.17900000E+06
  784  6.72000000E+05  6.17900000E+06
  785  6.72000000E+05  6.17800000E+06
  786  6.71000000E+05  6.17800000E+06