# File generated by Flopy version 3.3.2 on 01/09/2021 at 16:36:20.
BEGIN options
  READASARRAYS
  SAVE_FLOWS
END options

BEGIN period  1
  recharge
    CONSTANT  3.17097920E-09
END period  1

