BEGIN options
  SAVE_FLOWS
END options

BEGIN dimensions
  MAXBOUND  254
END dimensions

BEGIN period  1
  1 1258     178.22687548       0.01000000     177.22687548
  1 1261     177.61581608       0.01000000     176.61581608
  1 1268     177.23786671       0.01000000     176.23786671
  1 1264     176.58108214       0.01000000     175.58108214
  1 1265     175.74515740       0.01000000     174.74515740
  1 1266     174.69238111       0.01000000     173.69238111
  1 1267     173.64611519       0.01000000     172.64611519
  1 1275     173.10130607       0.01000000     172.10130607
  1 1274     172.55906549       0.01000000     171.55906549
  1 1275     171.56497451       0.01000000     170.56497451
  1 1278     170.57138086       0.01000000     169.57138086
  1 1279     169.54074306       0.01000000     168.54074306
  1 1282     168.88845414       0.01000000     167.88845414
  1 1284     168.74151369       0.01000000     167.74151369
  1 1282     168.23719218       0.01000000     167.23719218
  1 1208     167.22756312       0.01000000     166.22756312
  1 1206     166.15106630       0.01000000     165.15106630
  1 1200     165.47339825       0.01000000     164.47339825
  1 1201     164.72737453       0.01000000     163.72737453
  1 1204     163.98600323       0.01000000     162.98600323
  1 1202     163.23896479       0.01000000     162.23896479
  1 1203     162.54504029       0.01000000     161.54504029
  1 1101     161.95176741       0.01000000     160.95176741
  1 1106     160.90590876       0.01000000     159.90590876
  1 1107     159.87480433       0.01000000     158.87480433
  1 1110     158.83593700       0.01000000     157.83593700
  1 1111     157.78863547       0.01000000     156.78863547
  1 1120     157.25627454       0.01000000     156.25627454
  1 1122     157.14192368       0.01000000     156.14192368
  1 1120     156.58204394       0.01000000     155.58204394
  1 1121     155.68818910       0.01000000     154.68818910
  1 1115     154.77189902       0.01000000     153.77189902
  1 1118     154.17772234       0.01000000     153.17772234
  1 941     153.79136537       0.01000000     152.79136537
  1 1116     152.99764435       0.01000000     151.99764435
  1 941     152.17768542       0.01000000     151.17768542
  1 939     151.73151424       0.01000000     150.73151424
  1 940     150.99720507       0.01000000     149.99720507
  1 937     150.27776186       0.01000000     149.27776186
  1 945     149.50026780       0.01000000     148.50026780
  1 944     148.73725617       0.01000000     147.73725617
  1 946     148.56571864       0.01000000     147.56571864
  1 944     147.95915427       0.01000000     146.95915427
  1 771     147.28482060       0.01000000     146.28482060
  1 947     147.12309751       0.01000000     146.12309751
  1 771     146.46539134       0.01000000     145.46539134
  1 770     145.80345744       0.01000000     144.80345744
  1 772     145.75045469       0.01000000     144.75045469
  1 770     145.27211758       0.01000000     144.27211758
  1 775     144.27964344       0.01000000     143.27964344
  1 776     143.32335386       0.01000000     142.32335386
  1 781     142.83974045       0.01000000     141.83974045
  1 778     142.71843847       0.01000000     141.71843847
  1 781     142.17159438       0.01000000     141.17159438
  1 780     141.67540827       0.01000000     140.67540827
  1 782     141.48034423       0.01000000     140.48034423
  1 780     140.97592797       0.01000000     139.97592797
  1 791     140.11372644       0.01000000     139.11372644
  1 792     139.14123772       0.01000000     138.14123772
  1 786     138.47512457       0.01000000     137.47512457
  1 789     137.72793182       0.01000000     136.72793182
  1 790     136.65264661       0.01000000     135.65264661
  1 798     135.93904021       0.01000000     134.93904021
  1 796     135.10950404       0.01000000     134.10950404
  1 628     134.40141414       0.01000000     133.40141414
  1 629     133.93559298       0.01000000     132.93559298
  1 797     133.26995875       0.01000000     132.26995875
  1 800     132.45774840       0.01000000     131.45774840
  1 801     131.37254518       0.01000000     130.37254518
  1 806     130.46554683       0.01000000     129.46554683
  1 809     130.00101628       0.01000000     129.00101628
  1 808     129.75474289       0.01000000     128.75474289
  1 809     129.13511463       0.01000000     128.13511463
  1 812     128.11702681       0.01000000     127.11702681
  1 813     127.23817792       0.01000000     126.23817792
  1 816     126.68329342       0.01000000     125.68329342
  1 824     126.29964825       0.01000000     125.29964825
  1 821     125.92342010       0.01000000     124.92342010
  1 824     125.53494548       0.01000000     124.53494548
  1 825     124.76000625       0.01000000     123.76000625
  1 828     123.59448272       0.01000000     122.59448272
  1 829     122.58721958       0.01000000     121.58721958
  1 831     122.00609062       0.01000000     121.00609062
  1 836     121.35664080       0.01000000     120.35664080
  1 837     120.28657861       0.01000000     119.28657861
  1 841     119.68920037       0.01000000     118.68920037
  1 840     119.08320579       0.01000000     118.08320579
  1 841     118.42151236       0.01000000     117.42151236
  1 972     117.89491955       0.01000000     116.89491955
  1 977     116.93937086       0.01000000     115.93937086
  1 978     115.80221578       0.01000000     114.80221578
  1 981     114.69480450       0.01000000     113.69480450
  1 982     113.92954402       0.01000000     112.92954402
  1 984     113.32013708       0.01000000     112.32013708
  1 992     112.72816749       0.01000000     111.72816749
  1 989     112.07919494       0.01000000     111.07919494
  1 992     111.60718003       0.01000000     110.60718003
  1 993     111.01430911       0.01000000     110.01430911
  1 996     109.94994681       0.01000000     108.94994681
  1 1004     109.10995129       0.01000000     108.10995129
  1 997     108.43895283       0.01000000     107.43895283
  1 999     107.92143256       0.01000000     106.92143256
  1 1004     107.54875083       0.01000000     106.54875083
  1 1005     106.80828537       0.01000000     105.80828537
  1 1008     105.76218522       0.01000000     104.76218522
  1 1009     104.70975277       0.01000000     103.70975277
  1 1014     103.59435550       0.01000000     102.59435550
  1 1015     102.48322139       0.01000000     101.48322139
  1 1018     101.41224435       0.01000000     100.41224435
  1 1019     100.35883770       0.01000000      99.35883770
  1 1024      99.30814899       0.01000000      98.30814899
  1 1149      98.74215022       0.01000000      97.74215022
  1 1025      98.38880737       0.01000000      97.38880737
  1 1149      97.82128692       0.01000000      96.82128692
  1 1152      97.05331055       0.01000000      96.05331055
  1 1153      96.00352850       0.01000000      95.00352850
  1 1158      95.12273326       0.01000000      94.12273326
  1 1031      94.46964901       0.01000000      93.46964901
  1 1032      93.57744172       0.01000000      92.57744172
  1 1035      92.45240274       0.01000000      91.45240274
  1 1036      91.38085265       0.01000000      90.38085265
  1 1041      90.31140240       0.01000000      89.31140240
  1 1042      89.26811843       0.01000000      88.26811843
  1 1045      88.64289629       0.01000000      87.64289629
  1 1043      88.11185430       0.01000000      87.11185430
  1 1044      87.15981559       0.01000000      86.15981559
  1 1055      86.09073784       0.01000000      85.09073784
  1 1056      85.30692049       0.01000000      84.30692049
  1 1050      84.76113125       0.01000000      83.76113125
  1 1053      83.94441215       0.01000000      82.94441215
  1 1054      82.89543647       0.01000000      81.89543647
  1 1062      81.83270739       0.01000000      80.83270739
  1 1063      80.78368055       0.01000000      79.78368055
  1 1066      79.85253392       0.01000000      78.85253392
  1 1064      79.33169810       0.01000000      78.33169810
  1 1065      79.08058196       0.01000000      78.08058196
  1 1067      78.54288860       0.01000000      77.54288860
  1 1072      78.03401763       0.01000000      77.03401763
  1 1070      77.24720708       0.01000000      76.24720708
  1 868      76.45455972       0.01000000      75.45455972
  1 1071      76.29372999       0.01000000      75.29372999
  1 868      75.74717325       0.01000000      74.74717325
  1 872      74.86874597       0.01000000      73.86874597
  1 871      73.98497696       0.01000000      72.98497696
  1 872      73.32988517       0.01000000      72.32988517
  1 880      72.91003395       0.01000000      71.91003395
  1 878      72.36293077       0.01000000      71.36293077
  1 879      71.53188520       0.01000000      70.53188520
  1 876      70.92798924       0.01000000      69.92798924
  1 882      70.48600077       0.01000000      69.48600077
  1 876      69.95007529       0.01000000      68.95007529
  1 877      69.27251428       0.01000000      68.27251428
  1 889      68.65314696       0.01000000      67.65314696
  1 888      68.05284817       0.01000000      67.05284817
  1 889      67.09622909       0.01000000      66.09622909
  1 892      66.14381789       0.01000000      65.14381789
  1 893      65.11051332       0.01000000      64.11051332
  1 898      64.07561646       0.01000000      63.07561646
  1 897      63.35004644       0.01000000      62.35004644
  1 899      62.84735939       0.01000000      61.84735939
  1 897      62.52881655       0.01000000      61.52881655
  1 901      61.99015984       0.01000000      60.99015984
  1 900      60.95246728       0.01000000      59.95246728
  1 901      60.42552875       0.01000000      59.42552875
  1 906      59.87226433       0.01000000      58.87226433
  1 907      59.05749567       0.01000000      58.05749567
  1 667      58.50617437       0.01000000      57.50617437
  1 670      57.69702783       0.01000000      56.69702783
  1 671      56.64987161       0.01000000      55.64987161
  1 679      55.59546416       0.01000000      54.59546416
  1 678      54.82164669       0.01000000      53.82164669
  1 680      54.40390965       0.01000000      53.40390965
  1 678      54.08887393       0.01000000      53.08887393
  1 681      53.39181255       0.01000000      52.39181255
  1 682      52.45798073       0.01000000      51.45798073
  1 687      51.84971581       0.01000000      50.84971581
  1 676      51.44444362       0.01000000      50.44444362
  1 687      50.93513672       0.01000000      49.93513672
  1 688      50.25329720       0.01000000      49.25329720
  1 689      49.90055066       0.01000000      48.90055066
  1 686      49.64717045       0.01000000      48.64717045
  1 689      48.85317313       0.01000000      47.85317313
  1 690      47.77804960       0.01000000      46.77804960
  1 695      46.90706594       0.01000000      45.90706594
  1 508      46.14247267       0.01000000      45.14247267
  1 507      45.52493484       0.01000000      44.52493484
  1 508      45.19875968       0.01000000      44.19875968
  1 511      44.51512855       0.01000000      43.51512855
  1 510      43.76189145       0.01000000      42.76189145
  1 512      43.49333529       0.01000000      42.49333529
  1 510      43.15895168       0.01000000      42.15895168
  1 518      42.36727934       0.01000000      41.36727934
  1 519      41.27867666       0.01000000      40.27867666
  1 522      40.59964636       0.01000000      39.59964636
  1 517      40.36838834       0.01000000      39.36838834
  1 516      39.81397722       0.01000000      38.81397722
  1 517      38.95473922       0.01000000      37.95473922
  1 529      38.40111831       0.01000000      37.40111831
  1 528      37.74874097       0.01000000      36.74874097
  1 529      36.82549641       0.01000000      35.82549641
  1 536      36.08969524       0.01000000      35.08969524
  1 532      35.70468189       0.01000000      34.70468189
  1 535      35.15642870       0.01000000      34.15642870
  1 536      34.45423333       0.01000000      33.45423333
  1 541      33.72101092       0.01000000      32.72101092
  1 542      32.68196349       0.01000000      31.68196349
  1 545      31.64877558       0.01000000      30.64877558
  1 546      30.60868026       0.01000000      29.60868026
  1 552      29.86535565       0.01000000      28.86535565
  1 551      29.12743212       0.01000000      28.12743212
  1 552      28.31538550       0.01000000      27.31538550
  1 555      27.48420895       0.01000000      26.48420895
  1 561      26.87963780       0.01000000      25.87963780
  1 556      26.28958960       0.01000000      25.28958960
  1 561      25.32415973       0.01000000      24.32415973
  1 562      24.34655647       0.01000000      23.34655647
  1 565      23.25735412       0.01000000      22.25735412
  1 566      22.18019215       0.01000000      21.18019215
  1 571      21.12076838       0.01000000      20.12076838
  1 572      19.96672240       0.01000000      18.96672240
  1 577      19.09201386       0.01000000      18.09201386
  1 575      18.78536424       0.01000000      17.78536424
  1 577      18.31893973       0.01000000      17.31893973
  1 736      17.65958663       0.01000000      16.65958663
  1 578      17.34477093       0.01000000      16.34477093
  1 736      17.03856543       0.01000000      16.03856543
  1 741      16.27581003       0.01000000      15.27581003
  1 587      15.69147338       0.01000000      14.69147338
  1 742      15.52421967       0.01000000      14.52421967
  1 587      14.92601459       0.01000000      13.92601459
  1 590      14.22965827       0.01000000      13.22965827
  1 588      13.38346349       0.01000000      12.38346349
  1 582      12.72208791       0.01000000      11.72208791
  1 583      12.17128808       0.01000000      11.17128808
  1 597      11.58094230       0.01000000      10.58094230
  1 594      11.24142428       0.01000000      10.24142428
  1 597      10.77737449       0.01000000       9.77737449
  1 598      10.02592759       0.01000000       9.02592759
  1 601       9.08337709       0.01000000       8.08337709
  1 603       8.45337892       0.01000000       7.45337892
  1 604       7.63809452       0.01000000       6.63809452
  1 750       6.98289487       0.01000000       5.98289487
  1 755       6.29196910       0.01000000       5.29196910
  1 756       5.13911836       0.01000000       4.13911836
  1 610       4.44819546       0.01000000       3.44819546
  1 759       3.95046905       0.01000000       2.95046905
  1 610       3.48085342       0.01000000       2.48085342
  1 611       2.75357834       0.01000000       1.75357834
  1 616       1.90668361       0.01000000       0.90668361
  1 618       1.61503524       0.01000000       0.61503524
  1 616       1.10910590       0.01000000       0.10910590
  1 615       0.56034883       0.01000000      -0.43965117
  1 617       0.42929645       0.01000000      -0.57070355
  1 615       0.00000000       0.01000000      -1.00000000
END period  1

