BEGIN options
  SAVE_FLOWS
  XT3D  RHS
  SAVE_SPECIFIC_DISCHARGE
END options

BEGIN griddata
  icelltype
    CONSTANT  0
  k
    CONSTANT  1.00000000E-04
END griddata

