# File generated by Flopy version 3.3.2 on 01/09/2021 at 16:36:20.
BEGIN griddata
  strt
    CONSTANT     -49.00000000
END griddata

