# File generated by Flopy version 3.3.2 on 01/09/2021 at 16:36:20.
BEGIN options
  BUDGET  FILEOUT  Modele_raffine.cbc
  HEAD  FILEOUT  Modele_raffine.hds
END options

BEGIN period  1
  SAVE  HEAD  LAST
  SAVE  BUDGET  LAST
  PRINT  BUDGET  ALL
END period  1

