BEGIN options
END options

BEGIN dimensions
  NLAY  1
  NCPL  1932
  NVERT  2344
END dimensions

BEGIN griddata
  top
    CONSTANT     100.00000000
  botm
    CONSTANT     -50.00000000
  idomain
    CONSTANT  1
END griddata

BEGIN vertices
  1  7.01000000E+05  6.20400000E+06
  2  7.02000000E+05  6.20400000E+06
  3  7.02000000E+05  6.20300000E+06
  4  7.01000000E+05  6.20300000E+06
  5  7.03000000E+05  6.20400000E+06
  6  7.03000000E+05  6.20300000E+06
  7  7.04000000E+05  6.20400000E+06
  8  7.04000000E+05  6.20300000E+06
  9  7.05000000E+05  6.20400000E+06
  10  7.05000000E+05  6.20300000E+06
  11  7.02000000E+05  6.20200000E+06
  12  7.01000000E+05  6.20200000E+06
  13  7.03000000E+05  6.20200000E+06
  14  7.04000000E+05  6.20200000E+06
  15  7.05000000E+05  6.20200000E+06
  16  7.02000000E+05  6.20100000E+06
  17  7.01000000E+05  6.20100000E+06
  18  7.03000000E+05  6.20100000E+06
  19  7.04000000E+05  6.20100000E+06
  20  7.05000000E+05  6.20100000E+06
  21  7.03000000E+05  6.20000000E+06
  22  7.02000000E+05  6.20000000E+06
  23  7.04000000E+05  6.20000000E+06
  24  7.05000000E+05  6.20000000E+06
  25  7.00000000E+05  6.20000000E+06
  26  7.01000000E+05  6.20000000E+06
  27  7.01000000E+05  6.19900000E+06
  28  7.00000000E+05  6.19900000E+06
  29  7.02000000E+05  6.19900000E+06
  30  7.03000000E+05  6.19900000E+06
  31  7.04000000E+05  6.19900000E+06
  32  7.05000000E+05  6.19900000E+06
  33  7.01000000E+05  6.19800000E+06
  34  7.00000000E+05  6.19800000E+06
  35  7.02000000E+05  6.19800000E+06
  36  7.03000000E+05  6.19800000E+06
  37  7.04000000E+05  6.19800000E+06
  38  7.05000000E+05  6.19800000E+06
  39  6.99000000E+05  6.19800000E+06
  40  7.00000000E+05  6.19700000E+06
  41  6.99000000E+05  6.19700000E+06
  42  7.01000000E+05  6.19700000E+06
  43  7.02000000E+05  6.19700000E+06
  44  7.03000000E+05  6.19700000E+06
  45  7.04000000E+05  6.19700000E+06
  46  7.05000000E+05  6.19700000E+06
  47  6.98000000E+05  6.19700000E+06
  48  6.99000000E+05  6.19600000E+06
  49  6.98000000E+05  6.19600000E+06
  50  7.00000000E+05  6.19600000E+06
  51  7.01000000E+05  6.19600000E+06
  52  7.02000000E+05  6.19600000E+06
  53  7.03000000E+05  6.19600000E+06
  54  7.04000000E+05  6.19600000E+06
  55  7.05000000E+05  6.19600000E+06
  56  6.95000000E+05  6.19600000E+06
  57  6.96000000E+05  6.19600000E+06
  58  6.96000000E+05  6.19500000E+06
  59  6.95000000E+05  6.19500000E+06
  60  6.97000000E+05  6.19600000E+06
  61  6.97000000E+05  6.19500000E+06
  62  6.98000000E+05  6.19500000E+06
  63  6.99000000E+05  6.19500000E+06
  64  7.00000000E+05  6.19500000E+06
  65  7.01000000E+05  6.19500000E+06
  66  7.02000000E+05  6.19500000E+06
  67  7.03000000E+05  6.19500000E+06
  68  7.04000000E+05  6.19500000E+06
  69  6.93000000E+05  6.19500000E+06
  70  6.94000000E+05  6.19500000E+06
  71  6.94000000E+05  6.19400000E+06
  72  6.93000000E+05  6.19400000E+06
  73  6.95000000E+05  6.19400000E+06
  74  6.96000000E+05  6.19400000E+06
  75  6.97000000E+05  6.19400000E+06
  76  6.98000000E+05  6.19400000E+06
  77  6.98500000E+05  6.19500000E+06
  78  6.98500000E+05  6.19450000E+06
  79  6.98000000E+05  6.19450000E+06
  80  6.99000000E+05  6.19450000E+06
  81  6.98500000E+05  6.19400000E+06
  82  6.99000000E+05  6.19400000E+06
  83  7.00000000E+05  6.19400000E+06
  84  7.01000000E+05  6.19400000E+06
  85  7.02000000E+05  6.19400000E+06
  86  7.03000000E+05  6.19400000E+06
  87  7.04000000E+05  6.19400000E+06
  88  6.94000000E+05  6.19300000E+06
  89  6.93000000E+05  6.19300000E+06
  90  6.95000000E+05  6.19300000E+06
  91  6.96000000E+05  6.19300000E+06
  92  6.97000000E+05  6.19300000E+06
  93  6.97500000E+05  6.19400000E+06
  94  6.97500000E+05  6.19350000E+06
  95  6.97000000E+05  6.19350000E+06
  96  6.98000000E+05  6.19350000E+06
  97  6.97500000E+05  6.19300000E+06
  98  6.98000000E+05  6.19300000E+06
  99  6.98250000E+05  6.19400000E+06
  100  6.98250000E+05  6.19375000E+06
  101  6.98000000E+05  6.19375000E+06
  102  6.98500000E+05  6.19375000E+06
  103  6.98250000E+05  6.19350000E+06
  104  6.98375000E+05  6.19375000E+06
  105  6.98375000E+05  6.19362500E+06
  106  6.98250000E+05  6.19362500E+06
  107  6.98500000E+05  6.19362500E+06
  108  6.98375000E+05  6.19350000E+06
  109  6.98500000E+05  6.19350000E+06
  110  6.98750000E+05  6.19400000E+06
  111  6.98750000E+05  6.19375000E+06
  112  6.99000000E+05  6.19375000E+06
  113  6.98750000E+05  6.19350000E+06
  114  6.99000000E+05  6.19350000E+06
  115  6.98250000E+05  6.19325000E+06
  116  6.98000000E+05  6.19325000E+06
  117  6.98500000E+05  6.19325000E+06
  118  6.98250000E+05  6.19300000E+06
  119  6.98500000E+05  6.19300000E+06
  120  6.99000000E+05  6.19300000E+06
  121  6.99500000E+05  6.19400000E+06
  122  6.99500000E+05  6.19350000E+06
  123  7.00000000E+05  6.19350000E+06
  124  6.99500000E+05  6.19300000E+06
  125  7.00000000E+05  6.19300000E+06
  126  7.01000000E+05  6.19300000E+06
  127  7.02000000E+05  6.19300000E+06
  128  7.03000000E+05  6.19300000E+06
  129  7.04000000E+05  6.19300000E+06
  130  6.91000000E+05  6.19300000E+06
  131  6.92000000E+05  6.19300000E+06
  132  6.92000000E+05  6.19200000E+06
  133  6.91000000E+05  6.19200000E+06
  134  6.93000000E+05  6.19200000E+06
  135  6.94000000E+05  6.19200000E+06
  136  6.95000000E+05  6.19200000E+06
  137  6.96000000E+05  6.19200000E+06
  138  6.97000000E+05  6.19200000E+06
  139  6.98000000E+05  6.19200000E+06
  140  6.98500000E+05  6.19250000E+06
  141  6.98000000E+05  6.19250000E+06
  142  6.99000000E+05  6.19250000E+06
  143  6.98500000E+05  6.19200000E+06
  144  6.99000000E+05  6.19200000E+06
  145  7.00000000E+05  6.19200000E+06
  146  7.01000000E+05  6.19200000E+06
  147  7.02000000E+05  6.19200000E+06
  148  7.03000000E+05  6.19200000E+06
  149  7.04000000E+05  6.19200000E+06
  150  6.92000000E+05  6.19100000E+06
  151  6.91000000E+05  6.19100000E+06
  152  6.93000000E+05  6.19100000E+06
  153  6.94000000E+05  6.19100000E+06
  154  6.95000000E+05  6.19100000E+06
  155  6.96000000E+05  6.19100000E+06
  156  6.97000000E+05  6.19100000E+06
  157  6.98000000E+05  6.19100000E+06
  158  6.99000000E+05  6.19100000E+06
  159  7.00000000E+05  6.19100000E+06
  160  7.01000000E+05  6.19100000E+06
  161  7.02000000E+05  6.19100000E+06
  162  7.03000000E+05  6.19100000E+06
  163  7.04000000E+05  6.19100000E+06
  164  6.86000000E+05  6.19100000E+06
  165  6.87000000E+05  6.19100000E+06
  166  6.87000000E+05  6.19000000E+06
  167  6.86000000E+05  6.19000000E+06
  168  6.88000000E+05  6.19100000E+06
  169  6.88000000E+05  6.19000000E+06
  170  6.89000000E+05  6.19100000E+06
  171  6.89000000E+05  6.19000000E+06
  172  6.90000000E+05  6.19100000E+06
  173  6.90000000E+05  6.19000000E+06
  174  6.91000000E+05  6.19000000E+06
  175  6.92000000E+05  6.19000000E+06
  176  6.93000000E+05  6.19000000E+06
  177  6.94000000E+05  6.19000000E+06
  178  6.95000000E+05  6.19000000E+06
  179  6.96000000E+05  6.19000000E+06
  180  6.97000000E+05  6.19000000E+06
  181  6.98000000E+05  6.19000000E+06
  182  6.99000000E+05  6.19000000E+06
  183  7.00000000E+05  6.19000000E+06
  184  7.01000000E+05  6.19000000E+06
  185  7.02000000E+05  6.19000000E+06
  186  7.03000000E+05  6.19000000E+06
  187  7.04000000E+05  6.19000000E+06
  188  6.87000000E+05  6.18900000E+06
  189  6.86000000E+05  6.18900000E+06
  190  6.88000000E+05  6.18900000E+06
  191  6.89000000E+05  6.18900000E+06
  192  6.90000000E+05  6.18900000E+06
  193  6.91000000E+05  6.18900000E+06
  194  6.92000000E+05  6.18900000E+06
  195  6.93000000E+05  6.18900000E+06
  196  6.94000000E+05  6.18900000E+06
  197  6.95000000E+05  6.18900000E+06
  198  6.96000000E+05  6.18900000E+06
  199  6.97000000E+05  6.18900000E+06
  200  6.98000000E+05  6.18900000E+06
  201  6.99000000E+05  6.18900000E+06
  202  7.00000000E+05  6.18900000E+06
  203  7.01000000E+05  6.18900000E+06
  204  7.02000000E+05  6.18900000E+06
  205  7.03000000E+05  6.18900000E+06
  206  7.04000000E+05  6.18900000E+06
  207  6.86500000E+05  6.18850000E+06
  208  6.87000000E+05  6.18850000E+06
  209  6.87000000E+05  6.18800000E+06
  210  6.86500000E+05  6.18800000E+06
  211  6.87500000E+05  6.18900000E+06
  212  6.87500000E+05  6.18850000E+06
  213  6.88000000E+05  6.18850000E+06
  214  6.87500000E+05  6.18800000E+06
  215  6.88000000E+05  6.18800000E+06
  216  6.89000000E+05  6.18800000E+06
  217  6.90000000E+05  6.18800000E+06
  218  6.91000000E+05  6.18800000E+06
  219  6.92000000E+05  6.18800000E+06
  220  6.93000000E+05  6.18800000E+06
  221  6.94000000E+05  6.18800000E+06
  222  6.95000000E+05  6.18800000E+06
  223  6.96000000E+05  6.18800000E+06
  224  6.97000000E+05  6.18800000E+06
  225  6.98000000E+05  6.18800000E+06
  226  6.99000000E+05  6.18800000E+06
  227  7.00000000E+05  6.18800000E+06
  228  7.01000000E+05  6.18800000E+06
  229  7.02000000E+05  6.18800000E+06
  230  7.03000000E+05  6.18800000E+06
  231  7.04000000E+05  6.18800000E+06
  232  6.86000000E+05  6.18800000E+06
  233  6.86500000E+05  6.18750000E+06
  234  6.86000000E+05  6.18750000E+06
  235  6.86750000E+05  6.18800000E+06
  236  6.86750000E+05  6.18775000E+06
  237  6.86500000E+05  6.18775000E+06
  238  6.87000000E+05  6.18775000E+06
  239  6.86750000E+05  6.18750000E+06
  240  6.87000000E+05  6.18750000E+06
  241  6.86500000E+05  6.18700000E+06
  242  6.86000000E+05  6.18700000E+06
  243  6.87000000E+05  6.18700000E+06
  244  6.87250000E+05  6.18800000E+06
  245  6.87250000E+05  6.18775000E+06
  246  6.87500000E+05  6.18775000E+06
  247  6.87125000E+05  6.18775000E+06
  248  6.87125000E+05  6.18762500E+06
  249  6.87000000E+05  6.18762500E+06
  250  6.87250000E+05  6.18762500E+06
  251  6.87125000E+05  6.18750000E+06
  252  6.87250000E+05  6.18750000E+06
  253  6.87500000E+05  6.18750000E+06
  254  6.88000000E+05  6.18750000E+06
  255  6.87250000E+05  6.18725000E+06
  256  6.87000000E+05  6.18725000E+06
  257  6.87500000E+05  6.18725000E+06
  258  6.87250000E+05  6.18700000E+06
  259  6.87500000E+05  6.18700000E+06
  260  6.88000000E+05  6.18700000E+06
  261  6.89000000E+05  6.18700000E+06
  262  6.90000000E+05  6.18700000E+06
  263  6.91000000E+05  6.18700000E+06
  264  6.92000000E+05  6.18700000E+06
  265  6.93000000E+05  6.18700000E+06
  266  6.94000000E+05  6.18700000E+06
  267  6.95000000E+05  6.18700000E+06
  268  6.96000000E+05  6.18700000E+06
  269  6.97000000E+05  6.18700000E+06
  270  6.98000000E+05  6.18700000E+06
  271  6.99000000E+05  6.18700000E+06
  272  7.00000000E+05  6.18700000E+06
  273  7.01000000E+05  6.18700000E+06
  274  7.02000000E+05  6.18700000E+06
  275  7.03000000E+05  6.18700000E+06
  276  7.04000000E+05  6.18700000E+06
  277  6.85000000E+05  6.18700000E+06
  278  6.86000000E+05  6.18600000E+06
  279  6.85000000E+05  6.18600000E+06
  280  6.87000000E+05  6.18600000E+06
  281  6.87500000E+05  6.18650000E+06
  282  6.87000000E+05  6.18650000E+06
  283  6.88000000E+05  6.18650000E+06
  284  6.87500000E+05  6.18600000E+06
  285  6.88000000E+05  6.18600000E+06
  286  6.89000000E+05  6.18600000E+06
  287  6.90000000E+05  6.18600000E+06
  288  6.91000000E+05  6.18600000E+06
  289  6.92000000E+05  6.18600000E+06
  290  6.93000000E+05  6.18600000E+06
  291  6.94000000E+05  6.18600000E+06
  292  6.95000000E+05  6.18600000E+06
  293  6.96000000E+05  6.18600000E+06
  294  6.97000000E+05  6.18600000E+06
  295  6.98000000E+05  6.18600000E+06
  296  6.99000000E+05  6.18600000E+06
  297  7.00000000E+05  6.18600000E+06
  298  7.01000000E+05  6.18600000E+06
  299  7.02000000E+05  6.18600000E+06
  300  7.03000000E+05  6.18600000E+06
  301  7.04000000E+05  6.18600000E+06
  302  6.86000000E+05  6.18500000E+06
  303  6.85000000E+05  6.18500000E+06
  304  6.87000000E+05  6.18500000E+06
  305  6.88000000E+05  6.18500000E+06
  306  6.89000000E+05  6.18500000E+06
  307  6.90000000E+05  6.18500000E+06
  308  6.91000000E+05  6.18500000E+06
  309  6.92000000E+05  6.18500000E+06
  310  6.93000000E+05  6.18500000E+06
  311  6.94000000E+05  6.18500000E+06
  312  6.95000000E+05  6.18500000E+06
  313  6.96000000E+05  6.18500000E+06
  314  6.97000000E+05  6.18500000E+06
  315  6.98000000E+05  6.18500000E+06
  316  6.99000000E+05  6.18500000E+06
  317  6.99500000E+05  6.18600000E+06
  318  6.99500000E+05  6.18550000E+06
  319  6.99000000E+05  6.18550000E+06
  320  7.00000000E+05  6.18550000E+06
  321  6.99500000E+05  6.18500000E+06
  322  7.00000000E+05  6.18500000E+06
  323  7.00500000E+05  6.18600000E+06
  324  7.00500000E+05  6.18550000E+06
  325  7.01000000E+05  6.18550000E+06
  326  7.00250000E+05  6.18550000E+06
  327  7.00250000E+05  6.18525000E+06
  328  7.00000000E+05  6.18525000E+06
  329  7.00500000E+05  6.18525000E+06
  330  7.00250000E+05  6.18500000E+06
  331  7.00500000E+05  6.18500000E+06
  332  7.00750000E+05  6.18550000E+06
  333  7.00750000E+05  6.18525000E+06
  334  7.01000000E+05  6.18525000E+06
  335  7.00625000E+05  6.18525000E+06
  336  7.00625000E+05  6.18512500E+06
  337  7.00500000E+05  6.18512500E+06
  338  7.00750000E+05  6.18512500E+06
  339  7.00625000E+05  6.18500000E+06
  340  7.00750000E+05  6.18500000E+06
  341  7.01000000E+05  6.18500000E+06
  342  7.01500000E+05  6.18600000E+06
  343  7.01500000E+05  6.18550000E+06
  344  7.02000000E+05  6.18550000E+06
  345  7.01500000E+05  6.18500000E+06
  346  7.02000000E+05  6.18500000E+06
  347  7.02500000E+05  6.18600000E+06
  348  7.02500000E+05  6.18550000E+06
  349  7.03000000E+05  6.18550000E+06
  350  7.02500000E+05  6.18500000E+06
  351  7.03000000E+05  6.18500000E+06
  352  7.04000000E+05  6.18500000E+06
  353  6.83000000E+05  6.18500000E+06
  354  6.84000000E+05  6.18500000E+06
  355  6.84000000E+05  6.18400000E+06
  356  6.83000000E+05  6.18400000E+06
  357  6.85000000E+05  6.18400000E+06
  358  6.86000000E+05  6.18400000E+06
  359  6.87000000E+05  6.18400000E+06
  360  6.88000000E+05  6.18400000E+06
  361  6.89000000E+05  6.18400000E+06
  362  6.90000000E+05  6.18400000E+06
  363  6.91000000E+05  6.18400000E+06
  364  6.92000000E+05  6.18400000E+06
  365  6.93000000E+05  6.18400000E+06
  366  6.94000000E+05  6.18400000E+06
  367  6.95000000E+05  6.18400000E+06
  368  6.96000000E+05  6.18400000E+06
  369  6.97000000E+05  6.18400000E+06
  370  6.98000000E+05  6.18400000E+06
  371  6.99000000E+05  6.18400000E+06
  372  7.00000000E+05  6.18400000E+06
  373  7.00500000E+05  6.18450000E+06
  374  7.00000000E+05  6.18450000E+06
  375  7.00750000E+05  6.18475000E+06
  376  7.00500000E+05  6.18475000E+06
  377  7.01000000E+05  6.18475000E+06
  378  7.00750000E+05  6.18450000E+06
  379  7.01000000E+05  6.18450000E+06
  380  7.00500000E+05  6.18400000E+06
  381  7.01000000E+05  6.18400000E+06
  382  7.01500000E+05  6.18450000E+06
  383  7.02000000E+05  6.18450000E+06
  384  7.01500000E+05  6.18400000E+06
  385  7.02000000E+05  6.18400000E+06
  386  7.02500000E+05  6.18450000E+06
  387  7.02750000E+05  6.18500000E+06
  388  7.02750000E+05  6.18475000E+06
  389  7.02500000E+05  6.18475000E+06
  390  7.03000000E+05  6.18475000E+06
  391  7.02750000E+05  6.18450000E+06
  392  7.03000000E+05  6.18450000E+06
  393  7.02250000E+05  6.18450000E+06
  394  7.02250000E+05  6.18425000E+06
  395  7.02000000E+05  6.18425000E+06
  396  7.02500000E+05  6.18425000E+06
  397  7.02250000E+05  6.18400000E+06
  398  7.02500000E+05  6.18400000E+06
  399  7.02625000E+05  6.18450000E+06
  400  7.02625000E+05  6.18437500E+06
  401  7.02500000E+05  6.18437500E+06
  402  7.02750000E+05  6.18437500E+06
  403  7.02625000E+05  6.18425000E+06
  404  7.02750000E+05  6.18425000E+06
  405  7.03000000E+05  6.18425000E+06
  406  7.02750000E+05  6.18400000E+06
  407  7.03000000E+05  6.18400000E+06
  408  7.03500000E+05  6.18500000E+06
  409  7.03500000E+05  6.18450000E+06
  410  7.03500000E+05  6.18400000E+06
  411  6.81000000E+05  6.18400000E+06
  412  6.82000000E+05  6.18400000E+06
  413  6.82000000E+05  6.18300000E+06
  414  6.81000000E+05  6.18300000E+06
  415  6.83000000E+05  6.18300000E+06
  416  6.84000000E+05  6.18300000E+06
  417  6.85000000E+05  6.18300000E+06
  418  6.86000000E+05  6.18300000E+06
  419  6.87000000E+05  6.18300000E+06
  420  6.88000000E+05  6.18300000E+06
  421  6.89000000E+05  6.18300000E+06
  422  6.90000000E+05  6.18300000E+06
  423  6.91000000E+05  6.18300000E+06
  424  6.92000000E+05  6.18300000E+06
  425  6.93000000E+05  6.18300000E+06
  426  6.94000000E+05  6.18300000E+06
  427  6.95000000E+05  6.18300000E+06
  428  6.96000000E+05  6.18300000E+06
  429  6.97000000E+05  6.18300000E+06
  430  6.98000000E+05  6.18300000E+06
  431  6.99000000E+05  6.18300000E+06
  432  7.00000000E+05  6.18300000E+06
  433  7.01000000E+05  6.18300000E+06
  434  7.02000000E+05  6.18300000E+06
  435  7.02500000E+05  6.18350000E+06
  436  7.02000000E+05  6.18350000E+06
  437  7.03000000E+05  6.18350000E+06
  438  7.02500000E+05  6.18300000E+06
  439  7.03000000E+05  6.18300000E+06
  440  7.04000000E+05  6.18400000E+06
  441  7.04000000E+05  6.18300000E+06
  442  6.83000000E+05  6.18200000E+06
  443  6.82000000E+05  6.18200000E+06
  444  6.84000000E+05  6.18200000E+06
  445  6.85000000E+05  6.18200000E+06
  446  6.86000000E+05  6.18200000E+06
  447  6.87000000E+05  6.18200000E+06
  448  6.88000000E+05  6.18200000E+06
  449  6.89000000E+05  6.18200000E+06
  450  6.90000000E+05  6.18200000E+06
  451  6.91000000E+05  6.18200000E+06
  452  6.92000000E+05  6.18200000E+06
  453  6.93000000E+05  6.18200000E+06
  454  6.94000000E+05  6.18200000E+06
  455  6.95000000E+05  6.18200000E+06
  456  6.96000000E+05  6.18200000E+06
  457  6.97000000E+05  6.18200000E+06
  458  6.98000000E+05  6.18200000E+06
  459  6.99000000E+05  6.18200000E+06
  460  7.00000000E+05  6.18200000E+06
  461  7.01000000E+05  6.18200000E+06
  462  7.02000000E+05  6.18200000E+06
  463  7.03000000E+05  6.18200000E+06
  464  7.04000000E+05  6.18200000E+06
  465  6.79000000E+05  6.18200000E+06
  466  6.80000000E+05  6.18200000E+06
  467  6.80000000E+05  6.18100000E+06
  468  6.79000000E+05  6.18100000E+06
  469  6.81000000E+05  6.18200000E+06
  470  6.81000000E+05  6.18100000E+06
  471  6.82000000E+05  6.18100000E+06
  472  6.83000000E+05  6.18100000E+06
  473  6.84000000E+05  6.18100000E+06
  474  6.85000000E+05  6.18100000E+06
  475  6.86000000E+05  6.18100000E+06
  476  6.87000000E+05  6.18100000E+06
  477  6.88000000E+05  6.18100000E+06
  478  6.89000000E+05  6.18100000E+06
  479  6.90000000E+05  6.18100000E+06
  480  6.91000000E+05  6.18100000E+06
  481  6.92000000E+05  6.18100000E+06
  482  6.93000000E+05  6.18100000E+06
  483  6.94000000E+05  6.18100000E+06
  484  6.95000000E+05  6.18100000E+06
  485  6.96000000E+05  6.18100000E+06
  486  6.97000000E+05  6.18100000E+06
  487  6.98000000E+05  6.18100000E+06
  488  6.99000000E+05  6.18100000E+06
  489  7.00000000E+05  6.18100000E+06
  490  7.01000000E+05  6.18100000E+06
  491  7.02000000E+05  6.18100000E+06
  492  7.03000000E+05  6.18100000E+06
  493  7.04000000E+05  6.18100000E+06
  494  6.77000000E+05  6.18100000E+06
  495  6.78000000E+05  6.18100000E+06
  496  6.78000000E+05  6.18000000E+06
  497  6.77000000E+05  6.18000000E+06
  498  6.79000000E+05  6.18000000E+06
  499  6.80000000E+05  6.18000000E+06
  500  6.81000000E+05  6.18000000E+06
  501  6.82000000E+05  6.18000000E+06
  502  6.83000000E+05  6.18000000E+06
  503  6.84000000E+05  6.18000000E+06
  504  6.85000000E+05  6.18000000E+06
  505  6.86000000E+05  6.18000000E+06
  506  6.87000000E+05  6.18000000E+06
  507  6.88000000E+05  6.18000000E+06
  508  6.89000000E+05  6.18000000E+06
  509  6.90000000E+05  6.18000000E+06
  510  6.91000000E+05  6.18000000E+06
  511  6.92000000E+05  6.18000000E+06
  512  6.93000000E+05  6.18000000E+06
  513  6.94000000E+05  6.18000000E+06
  514  6.94500000E+05  6.18100000E+06
  515  6.94500000E+05  6.18050000E+06
  516  6.94000000E+05  6.18050000E+06
  517  6.95000000E+05  6.18050000E+06
  518  6.94500000E+05  6.18000000E+06
  519  6.95000000E+05  6.18000000E+06
  520  6.95500000E+05  6.18100000E+06
  521  6.95500000E+05  6.18050000E+06
  522  6.96000000E+05  6.18050000E+06
  523  6.95500000E+05  6.18000000E+06
  524  6.96000000E+05  6.18000000E+06
  525  6.97000000E+05  6.18000000E+06
  526  6.98000000E+05  6.18000000E+06
  527  6.99000000E+05  6.18000000E+06
  528  7.00000000E+05  6.18000000E+06
  529  7.00500000E+05  6.18100000E+06
  530  7.00500000E+05  6.18050000E+06
  531  7.00000000E+05  6.18050000E+06
  532  7.01000000E+05  6.18050000E+06
  533  7.00500000E+05  6.18000000E+06
  534  7.01000000E+05  6.18000000E+06
  535  7.01500000E+05  6.18100000E+06
  536  7.01500000E+05  6.18050000E+06
  537  7.02000000E+05  6.18050000E+06
  538  7.01500000E+05  6.18000000E+06
  539  7.02000000E+05  6.18000000E+06
  540  7.03000000E+05  6.18000000E+06
  541  7.03500000E+05  6.18100000E+06
  542  7.03500000E+05  6.18050000E+06
  543  7.03000000E+05  6.18050000E+06
  544  7.03500000E+05  6.18000000E+06
  545  6.73000000E+05  6.18000000E+06
  546  6.74000000E+05  6.18000000E+06
  547  6.74000000E+05  6.17900000E+06
  548  6.73000000E+05  6.17900000E+06
  549  6.74000000E+05  6.17950000E+06
  550  6.74500000E+05  6.17950000E+06
  551  6.74500000E+05  6.17900000E+06
  552  6.75000000E+05  6.17950000E+06
  553  6.75000000E+05  6.17900000E+06
  554  6.75500000E+05  6.18000000E+06
  555  6.76000000E+05  6.18000000E+06
  556  6.76000000E+05  6.17950000E+06
  557  6.75500000E+05  6.17950000E+06
  558  6.75500000E+05  6.17900000E+06
  559  6.76000000E+05  6.17900000E+06
  560  6.77000000E+05  6.17900000E+06
  561  6.78000000E+05  6.17900000E+06
  562  6.79000000E+05  6.17900000E+06
  563  6.80000000E+05  6.17900000E+06
  564  6.81000000E+05  6.17900000E+06
  565  6.82000000E+05  6.17900000E+06
  566  6.83000000E+05  6.17900000E+06
  567  6.84000000E+05  6.17900000E+06
  568  6.85000000E+05  6.17900000E+06
  569  6.86000000E+05  6.17900000E+06
  570  6.87000000E+05  6.17900000E+06
  571  6.88000000E+05  6.17900000E+06
  572  6.89000000E+05  6.17900000E+06
  573  6.90000000E+05  6.17900000E+06
  574  6.91000000E+05  6.17900000E+06
  575  6.91500000E+05  6.18000000E+06
  576  6.91500000E+05  6.17950000E+06
  577  6.91000000E+05  6.17950000E+06
  578  6.92000000E+05  6.17950000E+06
  579  6.91500000E+05  6.17900000E+06
  580  6.92000000E+05  6.17900000E+06
  581  6.92500000E+05  6.18000000E+06
  582  6.92500000E+05  6.17950000E+06
  583  6.93000000E+05  6.17950000E+06
  584  6.92500000E+05  6.17900000E+06
  585  6.93000000E+05  6.17900000E+06
  586  6.93500000E+05  6.18000000E+06
  587  6.93500000E+05  6.17950000E+06
  588  6.94000000E+05  6.17950000E+06
  589  6.93250000E+05  6.17950000E+06
  590  6.93250000E+05  6.17925000E+06
  591  6.93000000E+05  6.17925000E+06
  592  6.93500000E+05  6.17925000E+06
  593  6.93250000E+05  6.17900000E+06
  594  6.93500000E+05  6.17900000E+06
  595  6.93750000E+05  6.17950000E+06
  596  6.93750000E+05  6.17925000E+06
  597  6.94000000E+05  6.17925000E+06
  598  6.93750000E+05  6.17900000E+06
  599  6.94000000E+05  6.17900000E+06
  600  6.94500000E+05  6.17950000E+06
  601  6.94750000E+05  6.18000000E+06
  602  6.94750000E+05  6.17975000E+06
  603  6.94500000E+05  6.17975000E+06
  604  6.95000000E+05  6.17975000E+06
  605  6.94750000E+05  6.17950000E+06
  606  6.95000000E+05  6.17950000E+06
  607  6.94250000E+05  6.17950000E+06
  608  6.94250000E+05  6.17925000E+06
  609  6.94500000E+05  6.17925000E+06
  610  6.94250000E+05  6.17900000E+06
  611  6.94500000E+05  6.17900000E+06
  612  6.94750000E+05  6.17925000E+06
  613  6.95000000E+05  6.17925000E+06
  614  6.94750000E+05  6.17900000E+06
  615  6.95000000E+05  6.17900000E+06
  616  6.95250000E+05  6.18000000E+06
  617  6.95250000E+05  6.17975000E+06
  618  6.95500000E+05  6.17975000E+06
  619  6.95250000E+05  6.17950000E+06
  620  6.95500000E+05  6.17950000E+06
  621  6.95750000E+05  6.18000000E+06
  622  6.95750000E+05  6.17975000E+06
  623  6.96000000E+05  6.17975000E+06
  624  6.95750000E+05  6.17950000E+06
  625  6.96000000E+05  6.17950000E+06
  626  6.95500000E+05  6.17900000E+06
  627  6.95750000E+05  6.17925000E+06
  628  6.95500000E+05  6.17925000E+06
  629  6.96000000E+05  6.17925000E+06
  630  6.95750000E+05  6.17900000E+06
  631  6.96000000E+05  6.17900000E+06
  632  6.96500000E+05  6.18000000E+06
  633  6.96500000E+05  6.17950000E+06
  634  6.97000000E+05  6.17950000E+06
  635  6.96250000E+05  6.17950000E+06
  636  6.96250000E+05  6.17925000E+06
  637  6.96500000E+05  6.17925000E+06
  638  6.96250000E+05  6.17900000E+06
  639  6.96500000E+05  6.17900000E+06
  640  6.96750000E+05  6.17950000E+06
  641  6.96750000E+05  6.17925000E+06
  642  6.97000000E+05  6.17925000E+06
  643  6.96750000E+05  6.17900000E+06
  644  6.97000000E+05  6.17900000E+06
  645  6.97500000E+05  6.18000000E+06
  646  6.97500000E+05  6.17950000E+06
  647  6.98000000E+05  6.17950000E+06
  648  6.97250000E+05  6.17950000E+06
  649  6.97250000E+05  6.17925000E+06
  650  6.97500000E+05  6.17925000E+06
  651  6.97250000E+05  6.17900000E+06
  652  6.97500000E+05  6.17900000E+06
  653  6.97750000E+05  6.17950000E+06
  654  6.97750000E+05  6.17925000E+06
  655  6.98000000E+05  6.17925000E+06
  656  6.97750000E+05  6.17900000E+06
  657  6.98000000E+05  6.17900000E+06
  658  6.98500000E+05  6.18000000E+06
  659  6.98500000E+05  6.17950000E+06
  660  6.99000000E+05  6.17950000E+06
  661  6.98250000E+05  6.17950000E+06
  662  6.98250000E+05  6.17925000E+06
  663  6.98500000E+05  6.17925000E+06
  664  6.98250000E+05  6.17900000E+06
  665  6.98500000E+05  6.17900000E+06
  666  6.98750000E+05  6.17950000E+06
  667  6.98750000E+05  6.17925000E+06
  668  6.99000000E+05  6.17925000E+06
  669  6.98750000E+05  6.17900000E+06
  670  6.99000000E+05  6.17900000E+06
  671  6.99500000E+05  6.18000000E+06
  672  6.99500000E+05  6.17950000E+06
  673  7.00000000E+05  6.17950000E+06
  674  6.99250000E+05  6.17950000E+06
  675  6.99250000E+05  6.17925000E+06
  676  6.99500000E+05  6.17925000E+06
  677  6.99250000E+05  6.17900000E+06
  678  6.99500000E+05  6.17900000E+06
  679  6.99750000E+05  6.17950000E+06
  680  6.99750000E+05  6.17925000E+06
  681  7.00000000E+05  6.17925000E+06
  682  6.99750000E+05  6.17900000E+06
  683  7.00000000E+05  6.17900000E+06
  684  7.00500000E+05  6.17950000E+06
  685  7.00750000E+05  6.18000000E+06
  686  7.00750000E+05  6.17975000E+06
  687  7.00500000E+05  6.17975000E+06
  688  7.01000000E+05  6.17975000E+06
  689  7.00750000E+05  6.17950000E+06
  690  7.01000000E+05  6.17950000E+06
  691  7.00250000E+05  6.17950000E+06
  692  7.00250000E+05  6.17925000E+06
  693  7.00500000E+05  6.17925000E+06
  694  7.00250000E+05  6.17900000E+06
  695  7.00500000E+05  6.17900000E+06
  696  7.00750000E+05  6.17925000E+06
  697  7.01000000E+05  6.17925000E+06
  698  7.00750000E+05  6.17900000E+06
  699  7.01000000E+05  6.17900000E+06
  700  7.01250000E+05  6.18000000E+06
  701  7.01250000E+05  6.17975000E+06
  702  7.01500000E+05  6.17975000E+06
  703  7.01250000E+05  6.17950000E+06
  704  7.01500000E+05  6.17950000E+06
  705  7.02000000E+05  6.17950000E+06
  706  7.01250000E+05  6.17925000E+06
  707  7.01500000E+05  6.17925000E+06
  708  7.01250000E+05  6.17900000E+06
  709  7.01500000E+05  6.17900000E+06
  710  7.01750000E+05  6.17950000E+06
  711  7.01750000E+05  6.17925000E+06
  712  7.02000000E+05  6.17925000E+06
  713  7.01750000E+05  6.17900000E+06
  714  7.02000000E+05  6.17900000E+06
  715  7.02500000E+05  6.18000000E+06
  716  7.02500000E+05  6.17950000E+06
  717  7.03000000E+05  6.17950000E+06
  718  7.02500000E+05  6.17900000E+06
  719  7.02750000E+05  6.17950000E+06
  720  7.02750000E+05  6.17925000E+06
  721  7.02500000E+05  6.17925000E+06
  722  7.03000000E+05  6.17925000E+06
  723  7.02750000E+05  6.17900000E+06
  724  7.03000000E+05  6.17900000E+06
  725  7.03250000E+05  6.18000000E+06
  726  7.03250000E+05  6.17975000E+06
  727  7.03000000E+05  6.17975000E+06
  728  7.03500000E+05  6.17975000E+06
  729  7.03250000E+05  6.17950000E+06
  730  7.03500000E+05  6.17950000E+06
  731  7.03250000E+05  6.17925000E+06
  732  7.03500000E+05  6.17925000E+06
  733  7.03250000E+05  6.17900000E+06
  734  7.03500000E+05  6.17900000E+06
  735  6.71000000E+05  6.17900000E+06
  736  6.72000000E+05  6.17900000E+06
  737  6.72000000E+05  6.17800000E+06
  738  6.71000000E+05  6.17800000E+06
  739  6.72500000E+05  6.17900000E+06
  740  6.73000000E+05  6.17850000E+06
  741  6.72500000E+05  6.17850000E+06
  742  6.72000000E+05  6.17850000E+06
  743  6.72500000E+05  6.17800000E+06
  744  6.73000000E+05  6.17800000E+06
  745  6.73500000E+05  6.17900000E+06
  746  6.73500000E+05  6.17850000E+06
  747  6.74000000E+05  6.17850000E+06
  748  6.73250000E+05  6.17850000E+06
  749  6.73250000E+05  6.17825000E+06
  750  6.73000000E+05  6.17825000E+06
  751  6.73500000E+05  6.17825000E+06
  752  6.73250000E+05  6.17800000E+06
  753  6.73500000E+05  6.17800000E+06
  754  6.74000000E+05  6.17800000E+06
  755  6.74500000E+05  6.17850000E+06
  756  6.74750000E+05  6.17900000E+06
  757  6.74750000E+05  6.17875000E+06
  758  6.74500000E+05  6.17875000E+06
  759  6.75000000E+05  6.17875000E+06
  760  6.74750000E+05  6.17850000E+06
  761  6.75000000E+05  6.17850000E+06
  762  6.74500000E+05  6.17800000E+06
  763  6.75000000E+05  6.17800000E+06
  764  6.75250000E+05  6.17900000E+06
  765  6.75250000E+05  6.17875000E+06
  766  6.75500000E+05  6.17875000E+06
  767  6.75125000E+05  6.17875000E+06
  768  6.75125000E+05  6.17862500E+06
  769  6.75000000E+05  6.17862500E+06
  770  6.75250000E+05  6.17862500E+06
  771  6.75125000E+05  6.17850000E+06
  772  6.75250000E+05  6.17850000E+06
  773  6.75500000E+05  6.17850000E+06
  774  6.76000000E+05  6.17850000E+06
  775  6.75250000E+05  6.17825000E+06
  776  6.75000000E+05  6.17825000E+06
  777  6.75500000E+05  6.17825000E+06
  778  6.75250000E+05  6.17800000E+06
  779  6.75500000E+05  6.17800000E+06
  780  6.76000000E+05  6.17800000E+06
  781  6.77000000E+05  6.17800000E+06
  782  6.78000000E+05  6.17800000E+06
  783  6.79000000E+05  6.17800000E+06
  784  6.80000000E+05  6.17800000E+06
  785  6.81000000E+05  6.17800000E+06
  786  6.82000000E+05  6.17800000E+06