# File generated by Flopy version 3.3.2 on 01/09/2021 at 16:36:25.
BEGIN options
  SAVE_FLOWS
  XT3D  RHS
  SAVE_SPECIFIC_DISCHARGE
END options

BEGIN griddata
  icelltype
    CONSTANT  0
  k
    CONSTANT  1.00000000E-04
END griddata

