BEGIN griddata
  strt
    CONSTANT     -49.00000000
END griddata

