BEGIN options
  SAVE_FLOWS
END options

BEGIN dimensions
  MAXBOUND  12
END dimensions

BEGIN period  1
  1 1393      -0.05000000
  1 1317      -0.05000000
  1 1667      -0.05000000
  1 724      -0.05000000
  1 268      -0.05000000
  1 224      -0.05000000
  1 339      -0.05000000
  1 63      -0.05000000
  1 1162      -0.05000000
  1 84      -0.05000000
  1 1513      -0.05000000
  1 445      -0.05000000
END period  1

