BEGIN options
  READASARRAYS
  SAVE_FLOWS
END options

BEGIN period  1
  recharge
    CONSTANT  3.17097920E-09
END period  1

