BEGIN options
  SAVE_FLOWS
END options

BEGIN dimensions
  MAXBOUND  11
END dimensions

BEGIN period  1
  1 1364      -0.05000000
  1 1519      -0.05000000
  1 1201      -0.05000000
  1 1458      -0.05000000
  1 265      -0.05000000
  1 44      -0.05000000
  1 325      -0.05000000
  1 179      -0.05000000
  1 412      -0.05000000
  1 1784      -0.05000000
  1 145      -0.05000000
END period  1

