# File generated by Flopy version 3.3.2 on 01/09/2021 at 16:36:20.
BEGIN options
  SAVE_FLOWS
END options

BEGIN dimensions
  MAXBOUND  14
END dimensions

BEGIN period  1
  1 318      -0.05000000
  1 1409      -0.05000000
  1 1436      -0.05000000
  1 768      -0.05000000
  1 264      -0.05000000
  1 1211      -0.05000000
  1 75      -0.05000000
  1 1241      -0.05000000
  1 1687      -0.05000000
  1 1906      -0.05000000
  1 1160      -0.05000000
  1 603      -0.05000000
  1 189      -0.05000000
  1 1359      -0.05000000
END period  1

