# File generated by Flopy version 3.3.2 on 01/09/2021 at 16:13:16.
BEGIN options
END options

BEGIN timing
  TDIS6  tuto_BC.tdis
END timing

BEGIN models
  gwf6  tuto_BC.nam  tuto_BC
END models

BEGIN exchanges
END exchanges

BEGIN solutiongroup  1
  ims6  tuto_BC.ims  tuto_BC
END solutiongroup  1

