# File generated by Flopy version 3.3.2 on 01/09/2021 at 16:13:16.
BEGIN options
  PRINT_OPTION  summary
  COMPLEXITY  simple
END options

