BEGIN options
  SAVE_FLOWS
END options

BEGIN dimensions
  MAXBOUND  10
END dimensions

BEGIN period  1
  3 24 17      10.00000000       0.01000000
  3 31 35       9.00000000       0.01000000
  3 19 28       9.00000000       0.01000000
  3 17 24       6.00000000       0.01000000
  3 21 13      10.00000000       0.01000000
  3 29 14       7.00000000       0.01000000
  3 9 22       9.00000000       0.01000000
  3 12 38       8.00000000       0.01000000
  3 19 27       6.00000000       0.01000000
  3 18 6       8.00000000       0.01000000
END period  1

