# File generated by Flopy version 3.3.2 on 01/09/2021 at 16:13:16.
BEGIN options
END options

BEGIN packages
  RCH6  tuto_BC.rcha  rcha
  WEL6  tuto_BC.wel  wel
  CHD6  tuto_BC.chd  chd
  NPF6  tuto_BC.npf  npf
  OC6  tuto_BC.oc  oc
  IC6  tuto_BC.ic  ic
  DIS6  tuto_BC.dis  dis
  RIV6  tuto_BC.riv  super_riviere
  DRN6  tuto_BC.drn  drain
  EVT6  tuto_BC.evt  evt_0
  GHB6  tuto_BC.ghb  ghabe
END packages

