BEGIN options
  PRINT_OPTION  summary
  COMPLEXITY  simple
END options

