BEGIN options
  SAVE_FLOWS
END options

BEGIN dimensions
  MAXBOUND  1200
END dimensions

BEGIN period  1
  1 1 1  2.53678336E-08
  1 1 2  2.53678336E-08
  1 1 3  2.53678336E-08
  1 1 4  2.53678336E-08
  1 1 5  2.53678336E-08
  1 1 6  2.53678336E-08
  1 1 7  2.53678336E-08
  1 1 8  2.53678336E-08
  1 1 9  2.53678336E-08
  1 1 10  2.53678336E-08
  1 1 11  2.53678336E-08
  1 1 12  2.53678336E-08
  1 1 13  2.53678336E-08
  1 1 14  2.53678336E-08
  1 1 15  2.53678336E-08
  1 1 16  2.53678336E-08
  1 1 17  2.53678336E-08
  1 1 18  2.53678336E-08
  1 1 19  2.53678336E-08
  1 1 20  2.53678336E-08
  1 1 21  2.53678336E-08
  1 1 22  2.53678336E-08
  1 1 23  2.53678336E-08
  1 1 24  2.53678336E-08
  1 1 25  2.53678336E-08
  1 1 26  2.53678336E-08
  1 1 27  2.53678336E-08
  1 1 28  2.53678336E-08
  1 1 29  2.53678336E-08
  1 1 30  2.53678336E-08
  1 1 31  2.53678336E-08
  1 1 32  2.53678336E-08
  1 1 33  2.53678336E-08
  1 1 34  2.53678336E-08
  1 1 35  2.53678336E-08
  1 1 36  2.53678336E-08
  1 1 37  2.53678336E-08
  1 1 38  2.53678336E-08
  1 1 39  2.53678336E-08
  1 1 40  2.53678336E-08
  1 2 1  2.53678336E-08
  1 2 2  2.53678336E-08
  1 2 3  2.53678336E-08
  1 2 4  2.53678336E-08
  1 2 5  2.53678336E-08
  1 2 6  2.53678336E-08
  1 2 7  2.53678336E-08
  1 2 8  2.53678336E-08
  1 2 9  2.53678336E-08
  1 2 10  2.53678336E-08
  1 2 11  2.53678336E-08
  1 2 12  2.53678336E-08
  1 2 13  2.53678336E-08
  1 2 14  2.53678336E-08
  1 2 15  2.53678336E-08
  1 2 16  2.53678336E-08
  1 2 17  2.53678336E-08
  1 2 18  2.53678336E-08
  1 2 19  2.53678336E-08
  1 2 20  2.53678336E-08
  1 2 21  2.53678336E-08
  1 2 22  2.53678336E-08
  1 2 23  2.53678336E-08
  1 2 24  2.53678336E-08
  1 2 25  2.53678336E-08
  1 2 26  2.53678336E-08
  1 2 27  2.53678336E-08
  1 2 28  2.53678336E-08
  1 2 29  2.53678336E-08
  1 2 30  2.53678336E-08
  1 2 31  2.53678336E-08
  1 2 32  2.53678336E-08
  1 2 33  2.53678336E-08
  1 2 34  2.53678336E-08
  1 2 35  2.53678336E-08
  1 2 36  2.53678336E-08
  1 2 37  2.53678336E-08
  1 2 38  2.53678336E-08
  1 2 39  2.53678336E-08
  1 2 40  2.53678336E-08
  1 3 1  2.53678336E-08
  1 3 2  2.53678336E-08
  1 3 3  2.53678336E-08
  1 3 4  2.53678336E-08
  1 3 5  2.53678336E-08
  1 3 6  2.53678336E-08
  1 3 7  2.53678336E-08
  1 3 8  2.53678336E-08
  1 3 9  2.53678336E-08
  1 3 10  2.53678336E-08
  1 3 11  2.53678336E-08
  1 3 12  2.53678336E-08
  1 3 13  2.53678336E-08
  1 3 14  2.53678336E-08
  1 3 15  2.53678336E-08
  1 3 16  2.53678336E-08
  1 3 17  2.53678336E-08
  1 3 18  2.53678336E-08
  1 3 19  2.53678336E-08
  1 3 20  2.53678336E-08
  1 3 21  2.53678336E-08
  1 3 22  2.53678336E-08
  1 3 23  2.53678336E-08
  1 3 24  2.53678336E-08
  1 3 25  2.53678336E-08
  1 3 26  2.53678336E-08
  1 3 27  2.53678336E-08
  1 3 28  2.53678336E-08
  1 3 29  2.53678336E-08
  1 3 30  2.53678336E-08
  1 3 31  2.53678336E-08
  1 3 32  2.53678336E-08
  1 3 33  2.53678336E-08
  1 3 34  2.53678336E-08
  1 3 35  2.53678336E-08
  1 3 36  2.53678336E-08
  1 3 37  2.53678336E-08
  1 3 38  2.53678336E-08
  1 3 39  2.53678336E-08
  1 3 40  2.53678336E-08
  1 4 1  2.53678336E-08
  1 4 2  2.53678336E-08
  1 4 3  2.53678336E-08
  1 4 4  2.53678336E-08
  1 4 5  2.53678336E-08
  1 4 6  2.53678336E-08
  1 4 7  2.53678336E-08
  1 4 8  2.53678336E-08
  1 4 9  2.53678336E-08
  1 4 10  2.53678336E-08
  1 4 11  2.53678336E-08
  1 4 12  2.53678336E-08
  1 4 13  2.53678336E-08
  1 4 14  2.53678336E-08
  1 4 15  2.53678336E-08
  1 4 16  2.53678336E-08
  1 4 17  2.53678336E-08
  1 4 18  2.53678336E-08
  1 4 19  2.53678336E-08
  1 4 20  2.53678336E-08
  1 4 21  2.53678336E-08
  1 4 22  2.53678336E-08
  1 4 23  2.53678336E-08
  1 4 24  2.53678336E-08
  1 4 25  2.53678336E-08
  1 4 26  2.53678336E-08
  1 4 27  2.53678336E-08
  1 4 28  2.53678336E-08
  1 4 29  2.53678336E-08
  1 4 30  2.53678336E-08
  1 4 31  2.53678336E-08
  1 4 32  2.53678336E-08
  1 4 33  2.53678336E-08
  1 4 34  2.53678336E-08
  1 4 35  2.53678336E-08
  1 4 36  2.53678336E-08
  1 4 37  2.53678336E-08
  1 4 38  2.53678336E-08
  1 4 39  2.53678336E-08
  1 4 40  2.53678336E-08
  1 5 1  2.53678336E-08
  1 5 2  2.53678336E-08
  1 5 3  2.53678336E-08
  1 5 4  2.53678336E-08
  1 5 5  2.53678336E-08
  1 5 6  2.53678336E-08
  1 5 7  2.53678336E-08
  1 5 8  2.53678336E-08
  1 5 9  2.53678336E-08
  1 5 10  2.53678336E-08
  1 5 11  2.53678336E-08
  1 5 12  2.53678336E-08
  1 5 13  2.53678336E-08
  1 5 14  2.53678336E-08
  1 5 15  2.53678336E-08
  1 5 16  2.53678336E-08
  1 5 17  2.53678336E-08
  1 5 18  2.53678336E-08
  1 5 19  2.53678336E-08
  1 5 20  2.53678336E-08
  1 5 21  2.53678336E-08
  1 5 22  2.53678336E-08
  1 5 23  2.53678336E-08
  1 5 24  2.53678336E-08
  1 5 25  2.53678336E-08
  1 5 26  2.53678336E-08
  1 5 27  2.53678336E-08
  1 5 28  2.53678336E-08
  1 5 29  2.53678336E-08
  1 5 30  2.53678336E-08
  1 5 31  2.53678336E-08
  1 5 32  2.53678336E-08
  1 5 33  2.53678336E-08
  1 5 34  2.53678336E-08
  1 5 35  2.53678336E-08
  1 5 36  2.53678336E-08
  1 5 37  2.53678336E-08
  1 5 38  2.53678336E-08
  1 5 39  2.53678336E-08
  1 5 40  2.53678336E-08
  1 6 1  2.53678336E-08
  1 6 2  2.53678336E-08
  1 6 3  2.53678336E-08
  1 6 4  2.53678336E-08
  1 6 5  2.53678336E-08
  1 6 6  2.53678336E-08
  1 6 7  2.53678336E-08
  1 6 8  2.53678336E-08
  1 6 9  2.53678336E-08
  1 6 10  2.53678336E-08
  1 6 11  2.53678336E-08
  1 6 12  2.53678336E-08
  1 6 13  2.53678336E-08
  1 6 14  2.53678336E-08
  1 6 15  2.53678336E-08
  1 6 16  2.53678336E-08
  1 6 17  2.53678336E-08
  1 6 18  2.53678336E-08
  1 6 19  2.53678336E-08
  1 6 20  2.53678336E-08
  1 6 21  2.53678336E-08
  1 6 22  2.53678336E-08
  1 6 23  2.53678336E-08
  1 6 24  2.53678336E-08
  1 6 25  2.53678336E-08
  1 6 26  2.53678336E-08
  1 6 27  2.53678336E-08
  1 6 28  2.53678336E-08
  1 6 29  2.53678336E-08
  1 6 30  2.53678336E-08
  1 6 31  2.53678336E-08
  1 6 32  2.53678336E-08
  1 6 33  2.53678336E-08
  1 6 34  2.53678336E-08
  1 6 35  2.53678336E-08
  1 6 36  2.53678336E-08
  1 6 37  2.53678336E-08
  1 6 38  2.53678336E-08
  1 6 39  2.53678336E-08
  1 6 40  2.53678336E-08
  1 7 1  2.53678336E-08
  1 7 2  2.53678336E-08
  1 7 3  2.53678336E-08
  1 7 4  2.53678336E-08
  1 7 5  2.53678336E-08
  1 7 6  2.53678336E-08
  1 7 7  2.53678336E-08
  1 7 8  2.53678336E-08
  1 7 9  2.53678336E-08
  1 7 10  2.53678336E-08
  1 7 11  2.53678336E-08
  1 7 12  2.53678336E-08
  1 7 13  2.53678336E-08
  1 7 14  2.53678336E-08
  1 7 15  2.53678336E-08
  1 7 16  2.53678336E-08
  1 7 17  2.53678336E-08
  1 7 18  2.53678336E-08
  1 7 19  2.53678336E-08
  1 7 20  2.53678336E-08
  1 7 21  2.53678336E-08
  1 7 22  2.53678336E-08
  1 7 23  2.53678336E-08
  1 7 24  2.53678336E-08
  1 7 25  2.53678336E-08
  1 7 26  2.53678336E-08
  1 7 27  2.53678336E-08
  1 7 28  2.53678336E-08
  1 7 29  2.53678336E-08
  1 7 30  2.53678336E-08
  1 7 31  2.53678336E-08
  1 7 32  2.53678336E-08
  1 7 33  2.53678336E-08
  1 7 34  2.53678336E-08
  1 7 35  2.53678336E-08
  1 7 36  2.53678336E-08
  1 7 37  2.53678336E-08
  1 7 38  2.53678336E-08
  1 7 39  2.53678336E-08
  1 7 40  2.53678336E-08
  1 8 1  2.53678336E-08
  1 8 2  2.53678336E-08
  1 8 3  2.53678336E-08
  1 8 4  2.53678336E-08
  1 8 5  2.53678336E-08
  1 8 6  2.53678336E-08
  1 8 7  2.53678336E-08
  1 8 8  2.53678336E-08
  1 8 9  2.53678336E-08
  1 8 10  2.53678336E-08
  1 8 11  2.53678336E-08
  1 8 12  2.53678336E-08
  1 8 13  2.53678336E-08
  1 8 14  2.53678336E-08
  1 8 15  2.53678336E-08
  1 8 16  2.53678336E-08
  1 8 17  2.53678336E-08
  1 8 18  2.53678336E-08
  1 8 19  2.53678336E-08
  1 8 20  2.53678336E-08
  1 8 21  2.53678336E-08
  1 8 22  2.53678336E-08
  1 8 23  2.53678336E-08
  1 8 24  2.53678336E-08
  1 8 25  2.53678336E-08
  1 8 26  2.53678336E-08
  1 8 27  2.53678336E-08
  1 8 28  2.53678336E-08
  1 8 29  2.53678336E-08
  1 8 30  2.53678336E-08
  1 8 31  2.53678336E-08
  1 8 32  2.53678336E-08
  1 8 33  2.53678336E-08
  1 8 34  2.53678336E-08
  1 8 35  2.53678336E-08
  1 8 36  2.53678336E-08
  1 8 37  2.53678336E-08
  1 8 38  2.53678336E-08
  1 8 39  2.53678336E-08
  1 8 40  2.53678336E-08
  1 9 1  2.53678336E-08
  1 9 2  2.53678336E-08
  1 9 3  2.53678336E-08
  1 9 4  2.53678336E-08
  1 9 5  2.53678336E-08
  1 9 6  2.53678336E-08
  1 9 7  2.53678336E-08
  1 9 8  2.53678336E-08
  1 9 9  2.53678336E-08
  1 9 10  2.53678336E-08
  1 9 11  2.53678336E-08
  1 9 12  2.53678336E-08
  1 9 13  2.53678336E-08
  1 9 14  2.53678336E-08
  1 9 15  2.53678336E-08
  1 9 16  2.53678336E-08
  1 9 17  2.53678336E-08
  1 9 18  2.53678336E-08
  1 9 19  2.53678336E-08
  1 9 20  2.53678336E-08
  1 9 21  2.53678336E-08
  1 9 22  2.53678336E-08
  1 9 23  2.53678336E-08
  1 9 24  2.53678336E-08
  1 9 25  2.53678336E-08
  1 9 26  2.53678336E-08
  1 9 27  2.53678336E-08
  1 9 28  2.53678336E-08
  1 9 29  2.53678336E-08
  1 9 30  2.53678336E-08
  1 9 31  2.53678336E-08
  1 9 32  2.53678336E-08
  1 9 33  2.53678336E-08
  1 9 34  2.53678336E-08
  1 9 35  2.53678336E-08
  1 9 36  2.53678336E-08
  1 9 37  2.53678336E-08
  1 9 38  2.53678336E-08
  1 9 39  2.53678336E-08
  1 9 40  2.53678336E-08
  1 10 1  2.53678336E-08
  1 10 2  2.53678336E-08
  1 10 3  2.53678336E-08
  1 10 4  2.53678336E-08
  1 10 5  2.53678336E-08
  1 10 6  2.53678336E-08
  1 10 7  2.53678336E-08
  1 10 8  2.53678336E-08
  1 10 9  2.53678336E-08
  1 10 10  2.53678336E-08
  1 10 11  2.53678336E-08
  1 10 12  2.53678336E-08
  1 10 13  2.53678336E-08
  1 10 14  2.53678336E-08
  1 10 15  2.53678336E-08
  1 10 16  2.53678336E-08
  1 10 17  2.53678336E-08
  1 10 18  2.53678336E-08
  1 10 19  2.53678336E-08
  1 10 20  2.53678336E-08
  1 10 21  2.53678336E-08
  1 10 22  2.53678336E-08
  1 10 23  2.53678336E-08
  1 10 24  2.53678336E-08
  1 10 25  2.53678336E-08
  1 10 26  2.53678336E-08
  1 10 27  2.53678336E-08
  1 10 28  2.53678336E-08
  1 10 29  2.53678336E-08
  1 10 30  2.53678336E-08
  1 10 31  2.53678336E-08
  1 10 32  2.53678336E-08
  1 10 33  2.53678336E-08
  1 10 34  2.53678336E-08
  1 10 35  2.53678336E-08
  1 10 36  2.53678336E-08
  1 10 37  2.53678336E-08
  1 10 38  2.53678336E-08
  1 10 39  2.53678336E-08
  1 10 40  2.53678336E-08
  1 11 1  2.53678336E-08
  1 11 2  2.53678336E-08
  1 11 3  2.53678336E-08
  1 11 4  2.53678336E-08
  1 11 5  2.53678336E-08
  1 11 6  2.53678336E-08
  1 11 7  2.53678336E-08
  1 11 8  2.53678336E-08
  1 11 9  2.53678336E-08
  1 11 10  2.53678336E-08
  1 11 11  2.53678336E-08
  1 11 12  2.53678336E-08
  1 11 13  2.53678336E-08
  1 11 14  2.53678336E-08
  1 11 15  2.53678336E-08
  1 11 16  2.53678336E-08
  1 11 17  2.53678336E-08
  1 11 18  2.53678336E-08
  1 11 19  2.53678336E-08
  1 11 20  2.53678336E-08
  1 11 21  2.53678336E-08
  1 11 22  2.53678336E-08
  1 11 23  2.53678336E-08
  1 11 24  2.53678336E-08
  1 11 25  2.53678336E-08
  1 11 26  2.53678336E-08
  1 11 27  2.53678336E-08
  1 11 28  2.53678336E-08
  1 11 29  2.53678336E-08
  1 11 30  2.53678336E-08
  1 11 31  2.53678336E-08
  1 11 32  2.53678336E-08
  1 11 33  2.53678336E-08
  1 11 34  2.53678336E-08
  1 11 35  2.53678336E-08
  1 11 36  2.53678336E-08
  1 11 37  2.53678336E-08
  1 11 38  2.53678336E-08
  1 11 39  2.53678336E-08
  1 11 40  2.53678336E-08
  1 12 1  2.53678336E-08
  1 12 2  2.53678336E-08
  1 12 3  2.53678336E-08
  1 12 4  2.53678336E-08
  1 12 5  2.53678336E-08
  1 12 6  2.53678336E-08
  1 12 7  2.53678336E-08
  1 12 8  2.53678336E-08
  1 12 9  2.53678336E-08
  1 12 10  2.53678336E-08
  1 12 11  2.53678336E-08
  1 12 12  2.53678336E-08
  1 12 13  2.53678336E-08
  1 12 14  2.53678336E-08
  1 12 15  2.53678336E-08
  1 12 16  2.53678336E-08
  1 12 17  2.53678336E-08
  1 12 18  2.53678336E-08
  1 12 19  2.53678336E-08
  1 12 20  2.53678336E-08
  1 12 21  2.53678336E-08
  1 12 22  2.53678336E-08
  1 12 23  2.53678336E-08
  1 12 24  2.53678336E-08
  1 12 25  2.53678336E-08
  1 12 26  2.53678336E-08
  1 12 27  2.53678336E-08
  1 12 28  2.53678336E-08
  1 12 29  2.53678336E-08
  1 12 30  2.53678336E-08
  1 12 31  2.53678336E-08
  1 12 32  2.53678336E-08
  1 12 33  2.53678336E-08
  1 12 34  2.53678336E-08
  1 12 35  2.53678336E-08
  1 12 36  2.53678336E-08
  1 12 37  2.53678336E-08
  1 12 38  2.53678336E-08
  1 12 39  2.53678336E-08
  1 12 40  2.53678336E-08
  1 13 1  2.53678336E-08
  1 13 2  2.53678336E-08
  1 13 3  2.53678336E-08
  1 13 4  2.53678336E-08
  1 13 5  2.53678336E-08
  1 13 6  2.53678336E-08
  1 13 7  2.53678336E-08
  1 13 8  2.53678336E-08
  1 13 9  2.53678336E-08
  1 13 10  2.53678336E-08
  1 13 11  2.53678336E-08
  1 13 12  2.53678336E-08
  1 13 13  2.53678336E-08
  1 13 14  2.53678336E-08
  1 13 15  2.53678336E-08
  1 13 16  2.53678336E-08
  1 13 17  2.53678336E-08
  1 13 18  2.53678336E-08
  1 13 19  2.53678336E-08
  1 13 20  2.53678336E-08
  1 13 21  2.53678336E-08
  1 13 22  2.53678336E-08
  1 13 23  2.53678336E-08
  1 13 24  2.53678336E-08
  1 13 25  2.53678336E-08
  1 13 26  2.53678336E-08
  1 13 27  2.53678336E-08
  1 13 28  2.53678336E-08
  1 13 29  2.53678336E-08
  1 13 30  2.53678336E-08
  1 13 31  2.53678336E-08
  1 13 32  2.53678336E-08
  1 13 33  2.53678336E-08
  1 13 34  2.53678336E-08
  1 13 35  2.53678336E-08
  1 13 36  2.53678336E-08
  1 13 37  2.53678336E-08
  1 13 38  2.53678336E-08
  1 13 39  2.53678336E-08
  1 13 40  2.53678336E-08
  1 14 1  2.53678336E-08
  1 14 2  2.53678336E-08
  1 14 3  2.53678336E-08
  1 14 4  2.53678336E-08
  1 14 5  2.53678336E-08
  1 14 6  2.53678336E-08
  1 14 7  2.53678336E-08
  1 14 8  2.53678336E-08
  1 14 9  2.53678336E-08
  1 14 10  2.53678336E-08
  1 14 11  2.53678336E-08
  1 14 12  2.53678336E-08
  1 14 13  2.53678336E-08
  1 14 14  2.53678336E-08
  1 14 15  2.53678336E-08
  1 14 16  2.53678336E-08
  1 14 17  2.53678336E-08
  1 14 18  2.53678336E-08
  1 14 19  2.53678336E-08
  1 14 20  2.53678336E-08
  1 14 21  2.53678336E-08
  1 14 22  2.53678336E-08
  1 14 23  2.53678336E-08
  1 14 24  2.53678336E-08
  1 14 25  2.53678336E-08
  1 14 26  2.53678336E-08
  1 14 27  2.53678336E-08
  1 14 28  2.53678336E-08
  1 14 29  2.53678336E-08
  1 14 30  2.53678336E-08
  1 14 31  2.53678336E-08
  1 14 32  2.53678336E-08
  1 14 33  2.53678336E-08
  1 14 34  2.53678336E-08
  1 14 35  2.53678336E-08
  1 14 36  2.53678336E-08
  1 14 37  2.53678336E-08
  1 14 38  2.53678336E-08
  1 14 39  2.53678336E-08
  1 14 40  2.53678336E-08
  1 15 1  2.53678336E-08
  1 15 2  2.53678336E-08
  1 15 3  2.53678336E-08
  1 15 4  2.53678336E-08
  1 15 5  2.53678336E-08
  1 15 6  2.53678336E-08
  1 15 7  2.53678336E-08
  1 15 8  2.53678336E-08
  1 15 9  2.53678336E-08
  1 15 10  2.53678336E-08
  1 15 11  2.53678336E-08
  1 15 12  2.53678336E-08
  1 15 13  2.53678336E-08
  1 15 14  2.53678336E-08
  1 15 15  2.53678336E-08
  1 15 16  2.53678336E-08
  1 15 17  2.53678336E-08
  1 15 18  2.53678336E-08
  1 15 19  2.53678336E-08
  1 15 20  2.53678336E-08
  1 15 21  2.53678336E-08
  1 15 22  2.53678336E-08
  1 15 23  2.53678336E-08
  1 15 24  2.53678336E-08
  1 15 25  2.53678336E-08
  1 15 26  2.53678336E-08
  1 15 27  2.53678336E-08
  1 15 28  2.53678336E-08
  1 15 29  2.53678336E-08
  1 15 30  2.53678336E-08
  1 15 31  2.53678336E-08
  1 15 32  2.53678336E-08
  1 15 33  2.53678336E-08
  1 15 34  2.53678336E-08
  1 15 35  2.53678336E-08
  1 15 36  2.53678336E-08
  1 15 37  2.53678336E-08
  1 15 38  2.53678336E-08
  1 15 39  2.53678336E-08
  1 15 40  2.53678336E-08
  1 16 1  2.53678336E-08
  1 16 2  2.53678336E-08
  1 16 3  2.53678336E-08
  1 16 4  2.53678336E-08
  1 16 5  2.53678336E-08
  1 16 6  2.53678336E-08
  1 16 7  2.53678336E-08
  1 16 8  2.53678336E-08
  1 16 9  2.53678336E-08
  1 16 10  2.53678336E-08
  1 16 11  2.53678336E-08
  1 16 12  2.53678336E-08
  1 16 13  2.53678336E-08
  1 16 14  2.53678336E-08
  1 16 15  2.53678336E-08
  1 16 16  2.53678336E-08
  1 16 17  2.53678336E-08
  1 16 18  2.53678336E-08
  1 16 19  2.53678336E-08
  1 16 20  2.53678336E-08
  1 16 21  2.53678336E-08
  1 16 22  2.53678336E-08
  1 16 23  2.53678336E-08
  1 16 24  2.53678336E-08
  1 16 25  2.53678336E-08
  1 16 26  2.53678336E-08
  1 16 27  2.53678336E-08
  1 16 28  2.53678336E-08
  1 16 29  2.53678336E-08
  1 16 30  2.53678336E-08
  1 16 31  2.53678336E-08
  1 16 32  2.53678336E-08
  1 16 33  2.53678336E-08
  1 16 34  2.53678336E-08
  1 16 35  2.53678336E-08
  1 16 36  2.53678336E-08
  1 16 37  2.53678336E-08
  1 16 38  2.53678336E-08
  1 16 39  2.53678336E-08
  1 16 40  2.53678336E-08
  1 17 1  2.53678336E-08
  1 17 2  2.53678336E-08
  1 17 3  2.53678336E-08
  1 17 4  2.53678336E-08
  1 17 5  2.53678336E-08
  1 17 6  2.53678336E-08
  1 17 7  2.53678336E-08
  1 17 8  2.53678336E-08
  1 17 9  2.53678336E-08
  1 17 10  2.53678336E-08
  1 17 11  2.53678336E-08
  1 17 12  2.53678336E-08
  1 17 13  2.53678336E-08
  1 17 14  2.53678336E-08
  1 17 15  2.53678336E-08
  1 17 16  2.53678336E-08
  1 17 17  2.53678336E-08
  1 17 18  2.53678336E-08
  1 17 19  2.53678336E-08
  1 17 20  2.53678336E-08
  1 17 21  2.53678336E-08
  1 17 22  2.53678336E-08
  1 17 23  2.53678336E-08
  1 17 24  2.53678336E-08
  1 17 25  2.53678336E-08
  1 17 26  2.53678336E-08
  1 17 27  2.53678336E-08
  1 17 28  2.53678336E-08
  1 17 29  2.53678336E-08
  1 17 30  2.53678336E-08
  1 17 31  2.53678336E-08
  1 17 32  2.53678336E-08
  1 17 33  2.53678336E-08
  1 17 34  2.53678336E-08
  1 17 35  2.53678336E-08
  1 17 36  2.53678336E-08
  1 17 37  2.53678336E-08
  1 17 38  2.53678336E-08
  1 17 39  2.53678336E-08
  1 17 40  2.53678336E-08
  1 18 1  2.53678336E-08
  1 18 2  2.53678336E-08
  1 18 3  2.53678336E-08
  1 18 4  2.53678336E-08
  1 18 5  2.53678336E-08
  1 18 6  2.53678336E-08
  1 18 7  2.53678336E-08
  1 18 8  2.53678336E-08
  1 18 9  2.53678336E-08
  1 18 10  2.53678336E-08
  1 18 11  2.53678336E-08
  1 18 12  2.53678336E-08
  1 18 13  2.53678336E-08
  1 18 14  2.53678336E-08
  1 18 15  2.53678336E-08
  1 18 16  2.53678336E-08
  1 18 17  2.53678336E-08
  1 18 18  2.53678336E-08
  1 18 19  2.53678336E-08
  1 18 20  2.53678336E-08
  1 18 21  2.53678336E-08
  1 18 22  2.53678336E-08
  1 18 23  2.53678336E-08
  1 18 24  2.53678336E-08
  1 18 25  2.53678336E-08
  1 18 26  2.53678336E-08
  1 18 27  2.53678336E-08
  1 18 28  2.53678336E-08
  1 18 29  2.53678336E-08
  1 18 30  2.53678336E-08
  1 18 31  2.53678336E-08
  1 18 32  2.53678336E-08
  1 18 33  2.53678336E-08
  1 18 34  2.53678336E-08
  1 18 35  2.53678336E-08
  1 18 36  2.53678336E-08
  1 18 37  2.53678336E-08
  1 18 38  2.53678336E-08
  1 18 39  2.53678336E-08
  1 18 40  2.53678336E-08
  1 19 1  2.53678336E-08
  1 19 2  2.53678336E-08
  1 19 3  2.53678336E-08
  1 19 4  2.53678336E-08
  1 19 5  2.53678336E-08
  1 19 6  2.53678336E-08
  1 19 7  2.53678336E-08
  1 19 8  2.53678336E-08
  1 19 9  2.53678336E-08
  1 19 10  2.53678336E-08
  1 19 11  2.53678336E-08
  1 19 12  2.53678336E-08
  1 19 13  2.53678336E-08
  1 19 14  2.53678336E-08
  1 19 15  2.53678336E-08
  1 19 16  2.53678336E-08
  1 19 17  2.53678336E-08
  1 19 18  2.53678336E-08
  1 19 19  2.53678336E-08
  1 19 20  2.53678336E-08
  1 19 21  2.53678336E-08
  1 19 22  2.53678336E-08
  1 19 23  2.53678336E-08
  1 19 24  2.53678336E-08
  1 19 25  2.53678336E-08
  1 19 26  2.53678336E-08
  1 19 27  2.53678336E-08
  1 19 28  2.53678336E-08
  1 19 29  2.53678336E-08
  1 19 30  2.53678336E-08
  1 19 31  2.53678336E-08
  1 19 32  2.53678336E-08
  1 19 33  2.53678336E-08
  1 19 34  2.53678336E-08
  1 19 35  2.53678336E-08
  1 19 36  2.53678336E-08
  1 19 37  2.53678336E-08
  1 19 38  2.53678336E-08
  1 19 39  2.53678336E-08
  1 19 40  2.53678336E-08
  1 20 1  2.53678336E-08
  1 20 2  2.53678336E-08
  1 20 3  2.53678336E-08
  1 20 4  2.53678336E-08
  1 20 5  2.53678336E-08
  1 20 6  2.53678336E-08
  1 20 7  2.53678336E-08
  1 20 8  2.53678336E-08
  1 20 9  2.53678336E-08
  1 20 10  2.53678336E-08
  1 20 11  2.53678336E-08
  1 20 12  2.53678336E-08
  1 20 13  2.53678336E-08
  1 20 14  2.53678336E-08
  1 20 15  2.53678336E-08
  1 20 16  2.53678336E-08
  1 20 17  2.53678336E-08
  1 20 18  2.53678336E-08
  1 20 19  2.53678336E-08
  1 20 20  2.53678336E-08
  1 20 21  2.53678336E-08
  1 20 22  2.53678336E-08
  1 20 23  2.53678336E-08
  1 20 24  2.53678336E-08
  1 20 25  2.53678336E-08
  1 20 26  2.53678336E-08
  1 20 27  2.53678336E-08
  1 20 28  2.53678336E-08
  1 20 29  2.53678336E-08
  1 20 30  2.53678336E-08
  1 20 31  2.53678336E-08
  1 20 32  2.53678336E-08
  1 20 33  2.53678336E-08
  1 20 34  2.53678336E-08
  1 20 35  2.53678336E-08
  1 20 36  2.53678336E-08
  1 20 37  2.53678336E-08
  1 20 38  2.53678336E-08
  1 20 39  2.53678336E-08
  1 20 40  2.53678336E-08
  1 21 1  2.53678336E-08
  1 21 2  2.53678336E-08
  1 21 3  2.53678336E-08
  1 21 4  2.53678336E-08
  1 21 5  2.53678336E-08
  1 21 6  2.53678336E-08
  1 21 7  2.53678336E-08
  1 21 8  2.53678336E-08
  1 21 9  2.53678336E-08
  1 21 10  2.53678336E-08
  1 21 11  2.53678336E-08
  1 21 12  2.53678336E-08
  1 21 13  2.53678336E-08
  1 21 14  2.53678336E-08
  1 21 15  2.53678336E-08
  1 21 16  2.53678336E-08
  1 21 17  2.53678336E-08
  1 21 18  2.53678336E-08
  1 21 19  2.53678336E-08
  1 21 20  2.53678336E-08
  1 21 21  2.53678336E-08
  1 21 22  2.53678336E-08
  1 21 23  2.53678336E-08
  1 21 24  2.53678336E-08
  1 21 25  2.53678336E-08
  1 21 26  2.53678336E-08
  1 21 27  2.53678336E-08
  1 21 28  2.53678336E-08
  1 21 29  2.53678336E-08
  1 21 30  2.53678336E-08
  1 21 31  2.53678336E-08
  1 21 32  2.53678336E-08
  1 21 33  2.53678336E-08
  1 21 34  2.53678336E-08
  1 21 35  2.53678336E-08
  1 21 36  2.53678336E-08
  1 21 37  2.53678336E-08
  1 21 38  2.53678336E-08
  1 21 39  2.53678336E-08
  1 21 40  2.53678336E-08
  1 22 1  2.53678336E-08
  1 22 2  2.53678336E-08
  1 22 3  2.53678336E-08
  1 22 4  2.53678336E-08
  1 22 5  2.53678336E-08
  1 22 6  2.53678336E-08
  1 22 7  2.53678336E-08
  1 22 8  2.53678336E-08
  1 22 9  2.53678336E-08
  1 22 10  2.53678336E-08
  1 22 11  2.53678336E-08
  1 22 12  2.53678336E-08
  1 22 13  2.53678336E-08
  1 22 14  2.53678336E-08
  1 22 15  2.53678336E-08
  1 22 16  2.53678336E-08
  1 22 17  2.53678336E-08
  1 22 18  2.53678336E-08
  1 22 19  2.53678336E-08
  1 22 20  2.53678336E-08
  1 22 21  2.53678336E-08
  1 22 22  2.53678336E-08
  1 22 23  2.53678336E-08
  1 22 24  2.53678336E-08
  1 22 25  2.53678336E-08
  1 22 26  2.53678336E-08
  1 22 27  2.53678336E-08
  1 22 28  2.53678336E-08
  1 22 29  2.53678336E-08
  1 22 30  2.53678336E-08
  1 22 31  2.53678336E-08
  1 22 32  2.53678336E-08
  1 22 33  2.53678336E-08
  1 22 34  2.53678336E-08
  1 22 35  2.53678336E-08
  1 22 36  2.53678336E-08
  1 22 37  2.53678336E-08
  1 22 38  2.53678336E-08
  1 22 39  2.53678336E-08
  1 22 40  2.53678336E-08
  1 23 1  2.53678336E-08
  1 23 2  2.53678336E-08
  1 23 3  2.53678336E-08
  1 23 4  2.53678336E-08
  1 23 5  2.53678336E-08
  1 23 6  2.53678336E-08
  1 23 7  2.53678336E-08
  1 23 8  2.53678336E-08
  1 23 9  2.53678336E-08
  1 23 10  2.53678336E-08
  1 23 11  2.53678336E-08
  1 23 12  2.53678336E-08
  1 23 13  2.53678336E-08
  1 23 14  2.53678336E-08
  1 23 15  2.53678336E-08
  1 23 16  2.53678336E-08
  1 23 17  2.53678336E-08
  1 23 18  2.53678336E-08
  1 23 19  2.53678336E-08
  1 23 20  2.53678336E-08
  1 23 21  2.53678336E-08
  1 23 22  2.53678336E-08
  1 23 23  2.53678336E-08
  1 23 24  2.53678336E-08
  1 23 25  2.53678336E-08
  1 23 26  2.53678336E-08
  1 23 27  2.53678336E-08
  1 23 28  2.53678336E-08
  1 23 29  2.53678336E-08
  1 23 30  2.53678336E-08
  1 23 31  2.53678336E-08
  1 23 32  2.53678336E-08
  1 23 33  2.53678336E-08
  1 23 34  2.53678336E-08
  1 23 35  2.53678336E-08
  1 23 36  2.53678336E-08
  1 23 37  2.53678336E-08
  1 23 38  2.53678336E-08
  1 23 39  2.53678336E-08
  1 23 40  2.53678336E-08
  1 24 1  2.53678336E-08
  1 24 2  2.53678336E-08
  1 24 3  2.53678336E-08
  1 24 4  2.53678336E-08
  1 24 5  2.53678336E-08
  1 24 6  2.53678336E-08
  1 24 7  2.53678336E-08
  1 24 8  2.53678336E-08
  1 24 9  2.53678336E-08
  1 24 10  2.53678336E-08
  1 24 11  2.53678336E-08
  1 24 12  2.53678336E-08
  1 24 13  2.53678336E-08
  1 24 14  2.53678336E-08
  1 24 15  2.53678336E-08
  1 24 16  2.53678336E-08
  1 24 17  2.53678336E-08
  1 24 18  2.53678336E-08
  1 24 19  2.53678336E-08
  1 24 20  2.53678336E-08
  1 24 21  2.53678336E-08
  1 24 22  2.53678336E-08
  1 24 23  2.53678336E-08
  1 24 24  2.53678336E-08
  1 24 25  2.53678336E-08
  1 24 26  2.53678336E-08
  1 24 27  2.53678336E-08
  1 24 28  2.53678336E-08
  1 24 29  2.53678336E-08
  1 24 30  2.53678336E-08
  1 24 31  2.53678336E-08
  1 24 32  2.53678336E-08
  1 24 33  2.53678336E-08
  1 24 34  2.53678336E-08
  1 24 35  2.53678336E-08
  1 24 36  2.53678336E-08
  1 24 37  2.53678336E-08
  1 24 38  2.53678336E-08
  1 24 39  2.53678336E-08
  1 24 40  2.53678336E-08
  1 25 1  2.53678336E-08
  1 25 2  2.53678336E-08
  1 25 3  2.53678336E-08
  1 25 4  2.53678336E-08
  1 25 5  2.53678336E-08
  1 25 6  2.53678336E-08
  1 25 7  2.53678336E-08
  1 25 8  2.53678336E-08
  1 25 9  2.53678336E-08
  1 25 10  2.53678336E-08
  1 25 11  2.53678336E-08
  1 25 12  2.53678336E-08
  1 25 13  2.53678336E-08
  1 25 14  2.53678336E-08
  1 25 15  2.53678336E-08
  1 25 16  2.53678336E-08
  1 25 17  2.53678336E-08
  1 25 18  2.53678336E-08
  1 25 19  2.53678336E-08
  1 25 20  2.53678336E-08
  1 25 21  2.53678336E-08
  1 25 22  2.53678336E-08
  1 25 23  2.53678336E-08
  1 25 24  2.53678336E-08
  1 25 25  2.53678336E-08
  1 25 26  2.53678336E-08
  1 25 27  2.53678336E-08
  1 25 28  2.53678336E-08
  1 25 29  2.53678336E-08
  1 25 30  2.53678336E-08
  1 25 31  2.53678336E-08
  1 25 32  2.53678336E-08
  1 25 33  2.53678336E-08
  1 25 34  2.53678336E-08
  1 25 35  2.53678336E-08
  1 25 36  2.53678336E-08
  1 25 37  2.53678336E-08
  1 25 38  2.53678336E-08
  1 25 39  2.53678336E-08
  1 25 40  2.53678336E-08
  1 26 1  2.53678336E-08
  1 26 2  2.53678336E-08
  1 26 3  2.53678336E-08
  1 26 4  2.53678336E-08
  1 26 5  2.53678336E-08
  1 26 6  2.53678336E-08
  1 26 7  2.53678336E-08
  1 26 8  2.53678336E-08
  1 26 9  2.53678336E-08
  1 26 10  2.53678336E-08
  1 26 11  2.53678336E-08
  1 26 12  2.53678336E-08
  1 26 13  2.53678336E-08
  1 26 14  2.53678336E-08
  1 26 15  2.53678336E-08
  1 26 16  2.53678336E-08
  1 26 17  2.53678336E-08
  1 26 18  2.53678336E-08
  1 26 19  2.53678336E-08
  1 26 20  2.53678336E-08
  1 26 21  2.53678336E-08
  1 26 22  2.53678336E-08
  1 26 23  2.53678336E-08
  1 26 24  2.53678336E-08
  1 26 25  2.53678336E-08
  1 26 26  2.53678336E-08
  1 26 27  2.53678336E-08
  1 26 28  2.53678336E-08
  1 26 29  2.53678336E-08
  1 26 30  2.53678336E-08
  1 26 31  2.53678336E-08
  1 26 32  2.53678336E-08
  1 26 33  2.53678336E-08
  1 26 34  2.53678336E-08
  1 26 35  2.53678336E-08
  1 26 36  2.53678336E-08
  1 26 37  2.53678336E-08
  1 26 38  2.53678336E-08
  1 26 39  2.53678336E-08
  1 26 40  2.53678336E-08
  1 27 1  2.53678336E-08
  1 27 2  2.53678336E-08
  1 27 3  2.53678336E-08
  1 27 4  2.53678336E-08
  1 27 5  2.53678336E-08
  1 27 6  2.53678336E-08
  1 27 7  2.53678336E-08
  1 27 8  2.53678336E-08
  1 27 9  2.53678336E-08
  1 27 10  2.53678336E-08
  1 27 11  2.53678336E-08
  1 27 12  2.53678336E-08
  1 27 13  2.53678336E-08
  1 27 14  2.53678336E-08
  1 27 15  2.53678336E-08
  1 27 16  2.53678336E-08
  1 27 17  2.53678336E-08
  1 27 18  2.53678336E-08
  1 27 19  2.53678336E-08
  1 27 20  2.53678336E-08
  1 27 21  2.53678336E-08
  1 27 22  2.53678336E-08
  1 27 23  2.53678336E-08
  1 27 24  2.53678336E-08
  1 27 25  2.53678336E-08
  1 27 26  2.53678336E-08
  1 27 27  2.53678336E-08
  1 27 28  2.53678336E-08
  1 27 29  2.53678336E-08
  1 27 30  2.53678336E-08
  1 27 31  2.53678336E-08
  1 27 32  2.53678336E-08
  1 27 33  2.53678336E-08
  1 27 34  2.53678336E-08
  1 27 35  2.53678336E-08
  1 27 36  2.53678336E-08
  1 27 37  2.53678336E-08
  1 27 38  2.53678336E-08
  1 27 39  2.53678336E-08
  1 27 40  2.53678336E-08
  1 28 1  2.53678336E-08
  1 28 2  2.53678336E-08
  1 28 3  2.53678336E-08
  1 28 4  2.53678336E-08
  1 28 5  2.53678336E-08
  1 28 6  2.53678336E-08
  1 28 7  2.53678336E-08
  1 28 8  2.53678336E-08
  1 28 9  2.53678336E-08
  1 28 10  2.53678336E-08
  1 28 11  2.53678336E-08
  1 28 12  2.53678336E-08
  1 28 13  2.53678336E-08
  1 28 14  2.53678336E-08
  1 28 15  2.53678336E-08
  1 28 16  2.53678336E-08
  1 28 17  2.53678336E-08
  1 28 18  2.53678336E-08
  1 28 19  2.53678336E-08
  1 28 20  2.53678336E-08
  1 28 21  2.53678336E-08
  1 28 22  2.53678336E-08
  1 28 23  2.53678336E-08
  1 28 24  2.53678336E-08
  1 28 25  2.53678336E-08
  1 28 26  2.53678336E-08
  1 28 27  2.53678336E-08
  1 28 28  2.53678336E-08
  1 28 29  2.53678336E-08
  1 28 30  2.53678336E-08
  1 28 31  2.53678336E-08
  1 28 32  2.53678336E-08
  1 28 33  2.53678336E-08
  1 28 34  2.53678336E-08
  1 28 35  2.53678336E-08
  1 28 36  2.53678336E-08
  1 28 37  2.53678336E-08
  1 28 38  2.53678336E-08
  1 28 39  2.53678336E-08
  1 28 40  2.53678336E-08
  1 29 1  2.53678336E-08
  1 29 2  2.53678336E-08
  1 29 3  2.53678336E-08
  1 29 4  2.53678336E-08
  1 29 5  2.53678336E-08
  1 29 6  2.53678336E-08
  1 29 7  2.53678336E-08
  1 29 8  2.53678336E-08
  1 29 9  2.53678336E-08
  1 29 10  2.53678336E-08
  1 29 11  2.53678336E-08
  1 29 12  2.53678336E-08
  1 29 13  2.53678336E-08
  1 29 14  2.53678336E-08
  1 29 15  2.53678336E-08
  1 29 16  2.53678336E-08
  1 29 17  2.53678336E-08
  1 29 18  2.53678336E-08
  1 29 19  2.53678336E-08
  1 29 20  2.53678336E-08
  1 29 21  2.53678336E-08
  1 29 22  2.53678336E-08
  1 29 23  2.53678336E-08
  1 29 24  2.53678336E-08
  1 29 25  2.53678336E-08
  1 29 26  2.53678336E-08
  1 29 27  2.53678336E-08
  1 29 28  2.53678336E-08
  1 29 29  2.53678336E-08
  1 29 30  2.53678336E-08
  1 29 31  2.53678336E-08
  1 29 32  2.53678336E-08
  1 29 33  2.53678336E-08
  1 29 34  2.53678336E-08
  1 29 35  2.53678336E-08
  1 29 36  2.53678336E-08
  1 29 37  2.53678336E-08
  1 29 38  2.53678336E-08
  1 29 39  2.53678336E-08
  1 29 40  2.53678336E-08
  1 30 1  2.53678336E-08
  1 30 2  2.53678336E-08
  1 30 3  2.53678336E-08
  1 30 4  2.53678336E-08
  1 30 5  2.53678336E-08
  1 30 6  2.53678336E-08
  1 30 7  2.53678336E-08
  1 30 8  2.53678336E-08
  1 30 9  2.53678336E-08
  1 30 10  2.53678336E-08
  1 30 11  2.53678336E-08
  1 30 12  2.53678336E-08
  1 30 13  2.53678336E-08
  1 30 14  2.53678336E-08