# File generated by Flopy version 3.3.2 on 01/09/2021 at 16:13:16.
BEGIN options
  BUDGET  FILEOUT  tuto_BC.cbc
  HEAD  FILEOUT  tuto_BC.hds
END options

BEGIN period  1
  SAVE  HEAD  LAST
  SAVE  BUDGET  LAST
  PRINT  BUDGET  ALL
END period  1

