BEGIN options
  BUDGET  FILEOUT  tuto_BC.cbc
  HEAD  FILEOUT  tuto_BC.hds
END options

BEGIN period  1
  SAVE  HEAD  LAST
  SAVE  BUDGET  LAST
  PRINT  BUDGET  ALL
END period  1

