# File generated by Flopy version 3.3.2 on 01/09/2021 at 16:13:16.
BEGIN options
END options

BEGIN dimensions
  NLAY  3
  NROW  30
  NCOL  40
END dimensions

BEGIN griddata
  delr
    INTERNAL  FACTOR  1.0
         4.00000000       4.00000000       4.00000000       4.00000000       4.00000000       4.00000000       4.00000000       4.00000000       4.00000000       4.00000000       4.00000000       4.00000000       4.00000000       4.00000000       4.00000000       4.00000000       4.00000000       4.00000000       4.00000000       4.00000000
         4.00000000       4.00000000       4.00000000       4.00000000       4.00000000       4.00000000       4.00000000       4.00000000       4.00000000       4.00000000       4.00000000       4.00000000       4.00000000       4.00000000       4.00000000       4.00000000       4.00000000       4.00000000       4.00000000       4.00000000
  delc
    INTERNAL  FACTOR  1.0
         5.00000000       5.00000000       5.00000000       5.00000000       5.00000000       5.00000000       5.00000000       5.00000000       5.00000000       5.00000000       5.00000000       5.00000000       5.00000000       5.00000000       5.00000000       5.00000000       5.00000000       5.00000000       5.00000000       5.00000000
         5.00000000       5.00000000       5.00000000       5.00000000       5.00000000       5.00000000       5.00000000       5.00000000       5.00000000       5.00000000
  top
    INTERNAL  FACTOR  1.0
        10.00000000       9.94871795       9.89743590       9.84615385       9.79487179       9.74358974       9.69230769       9.64102564       9.58974359       9.53846154       9.48717949       9.43589744       9.38461538       9.33333333       9.28205128       9.23076923       9.17948718       9.12820513       9.07692308       9.02564103
         8.97435897       8.92307692       8.87179487       8.82051282       8.76923077       8.71794872       8.66666667       8.61538462       8.56410256       8.51282051       8.46153846       8.41025641       8.35897436       8.30769231       8.25641026       8.20512821       8.15384615       8.10256410       8.05128205       8.00000000
        10.00000000       9.94871795       9.89743590       9.84615385       9.79487179       9.74358974       9.69230769       9.64102564       9.58974359       9.53846154       9.48717949       9.43589744       9.38461538       9.33333333       9.28205128       9.23076923       9.17948718       9.12820513       9.07692308       9.02564103
         8.97435897       8.92307692       8.87179487       8.82051282       8.76923077       8.71794872       8.66666667       8.61538462       8.56410256       8.51282051       8.46153846       8.41025641       8.35897436       8.30769231       8.25641026       8.20512821       8.15384615       8.10256410       8.05128205       8.00000000
        10.00000000       9.94871795       9.89743590       9.84615385       9.79487179       9.74358974       9.69230769       9.64102564       9.58974359       9.53846154       9.48717949       9.43589744       9.38461538       9.33333333       9.28205128       9.23076923       9.17948718       9.12820513       9.07692308       9.02564103
         8.97435897       8.92307692       8.87179487       8.82051282       8.76923077       8.71794872       8.66666667       8.61538462       8.56410256       8.51282051       8.46153846       8.41025641       8.35897436       8.30769231       8.25641026       8.20512821       8.15384615       8.10256410       8.05128205       8.00000000
        10.00000000       9.94871795       9.89743590       9.84615385       9.79487179       9.74358974       9.69230769       9.64102564       9.58974359       9.53846154       9.48717949       9.43589744       9.38461538       9.33333333       9.28205128       9.23076923       9.17948718       9.12820513       9.07692308       9.02564103
         8.97435897       8.92307692       8.87179487       8.82051282       8.76923077       8.71794872       8.66666667       8.61538462       8.56410256       8.51282051       8.46153846       8.41025641       8.35897436       8.30769231       8.25641026       8.20512821       8.15384615       8.10256410       8.05128205       8.00000000
        10.00000000       9.94871795       9.89743590       9.84615385       9.79487179       9.74358974       9.69230769       9.64102564       9.58974359       9.53846154       9.48717949       9.43589744       9.38461538       9.33333333       9.28205128       9.23076923       9.17948718       9.12820513       9.07692308       9.02564103
         8.97435897       8.92307692       8.87179487       8.82051282       8.76923077       8.71794872       8.66666667       8.61538462       8.56410256       8.51282051       8.46153846       8.41025641       8.35897436       8.30769231       8.25641026       8.20512821       8.15384615       8.10256410       8.05128205       8.00000000
        10.00000000       9.94871795       9.89743590       9.84615385       9.79487179       9.74358974       9.69230769       9.64102564       9.58974359       9.53846154       9.48717949       9.43589744       9.38461538       9.33333333       9.28205128       9.23076923       9.17948718       9.12820513       9.07692308       9.02564103
         8.97435897       8.92307692       8.87179487       8.82051282       8.76923077       8.71794872       8.66666667       8.61538462       8.56410256       8.51282051       8.46153846       8.41025641       8.35897436       8.30769231       8.25641026       8.20512821       8.15384615       8.10256410       8.05128205       8.00000000
        10.00000000       9.94871795       9.89743590       9.84615385       9.79487179       9.74358974       9.69230769       9.64102564       9.58974359       9.53846154       9.48717949       9.43589744       9.38461538       9.33333333       9.28205128       9.23076923       9.17948718       9.12820513       9.07692308       9.02564103
         8.97435897       8.92307692       8.87179487       8.82051282       8.76923077       8.71794872       8.66666667       8.61538462       8.56410256       8.51282051       8.46153846       8.41025641       8.35897436       8.30769231       8.25641026       8.20512821       8.15384615       8.10256410       8.05128205       8.00000000
        10.00000000       9.94871795       9.89743590       9.84615385       9.79487179       9.74358974       9.69230769       9.64102564       9.58974359       9.53846154       9.48717949       9.43589744       9.38461538       9.33333333       9.28205128       9.23076923       9.17948718       9.12820513       9.07692308       9.02564103
         8.97435897       8.92307692       8.87179487       8.82051282       8.76923077       8.71794872       8.66666667       8.61538462       8.56410256       8.51282051       8.46153846       8.41025641       8.35897436       8.30769231       8.25641026       8.20512821       8.15384615       8.10256410       8.05128205       8.00000000
        10.00000000       9.94871795       9.89743590       9.84615385       9.79487179       9.74358974       9.69230769       9.64102564       9.58974359       9.53846154       9.48717949       9.43589744       9.38461538       9.33333333       9.28205128       9.23076923       9.17948718       9.12820513       9.07692308       9.02564103
         8.97435897       8.92307692       8.87179487       8.82051282       8.76923077       8.71794872       8.66666667       8.61538462       8.56410256       8.51282051       8.46153846       8.41025641       8.35897436       8.30769231       8.25641026       8.20512821       8.15384615       8.10256410       8.05128205       8.00000000
        10.00000000       9.94871795       9.89743590       9.84615385       9.79487179       9.74358974       9.69230769       9.64102564       9.58974359       9.53846154       9.48717949       9.43589744       9.38461538       9.33333333       9.28205128       9.23076923       9.17948718       9.12820513       9.07692308       9.02564103
         8.97435897       8.92307692       8.87179487       8.82051282       8.76923077       8.71794872       8.66666667       8.61538462       8.56410256       8.51282051       8.46153846       8.41025641       8.35897436       8.30769231       8.25641026       8.20512821       8.15384615       8.10256410       8.05128205       8.00000000
        10.00000000       9.94871795       9.89743590       9.84615385       9.79487179       9.74358974       9.69230769       9.64102564       9.58974359       9.53846154       9.48717949       9.43589744       9.38461538       9.33333333       9.28205128       9.23076923       9.17948718       9.12820513       9.07692308       9.02564103
         8.97435897       8.92307692       8.87179487       8.82051282       8.76923077       8.71794872       8.66666667       8.61538462       8.56410256       8.51282051       8.46153846       8.41025641       8.35897436       8.30769231       8.25641026       8.20512821       8.15384615       8.10256410       8.05128205       8.00000000
        10.00000000       9.94871795       9.89743590       9.84615385       9.79487179       9.74358974       9.69230769       9.64102564       9.58974359       9.53846154       9.48717949       9.43589744       9.38461538       9.33333333       9.28205128       9.23076923       9.17948718       9.12820513       9.07692308       9.02564103
         8.97435897       8.92307692       8.87179487       8.82051282       8.76923077       8.71794872       8.66666667       8.61538462       8.56410256       8.51282051       8.46153846       8.41025641       8.35897436       8.30769231       8.25641026       8.20512821       8.15384615       8.10256410       8.05128205       8.00000000
        10.00000000       9.94871795       9.89743590       9.84615385       9.79487179       9.74358974       9.69230769       9.64102564       9.58974359       9.53846154       9.48717949       9.43589744       9.38461538       9.33333333       9.28205128       9.23076923       9.17948718       9.12820513       9.07692308       9.02564103
         8.97435897       8.92307692       8.87179487       8.82051282       8.76923077       8.71794872       8.66666667       8.61538462       8.56410256       8.51282051       8.46153846       8.41025641       8.35897436       8.30769231       8.25641026       8.20512821       8.15384615       8.10256410       8.05128205       8.00000000
        10.00000000       9.94871795       9.89743590       9.84615385       9.79487179       9.74358974       9.69230769       9.64102564       9.58974359       9.53846154       9.48717949       9.43589744       9.38461538       9.33333333       9.28205128       9.23076923       9.17948718       9.12820513       9.07692308       9.02564103
         8.97435897       8.92307692       8.87179487       8.82051282       8.76923077       8.71794872       8.66666667       8.61538462       8.56410256       8.51282051       8.46153846       8.41025641       8.35897436       8.30769231       8.25641026       8.20512821       8.15384615       8.10256410       8.05128205       8.00000000
        10.00000000       9.94871795       9.89743590       9.84615385       9.79487179       9.74358974       9.69230769       9.64102564       9.58974359       9.53846154       9.48717949       9.43589744       9.38461538       9.33333333       9.28205128       9.23076923       9.17948718       9.12820513       9.07692308       9.02564103
         8.97435897       8.92307692       8.87179487       8.82051282       8.76923077       8.71794872       8.66666667       8.61538462       8.56410256       8.51282051       8.46153846       8.41025641       8.35897436       8.30769231       8.25641026       8.20512821       8.15384615       8.10256410       8.05128205       8.00000000
        10.00000000       9.94871795       9.89743590       9.84615385       9.79487179       9.74358974       9.69230769       9.64102564       9.58974359       9.53846154       9.48717949       9.43589744       9.38461538       9.33333333       9.28205128       9.23076923       9.17948718       9.12820513       9.07692308       9.02564103
         8.97435897       8.92307692       8.87179487       8.82051282       8.76923077       8.71794872       8.66666667       8.61538462       8.56410256       8.51282051       8.46153846       8.41025641       8.35897436       8.30769231       8.25641026       8.20512821       8.15384615       8.10256410       8.05128205       8.00000000
        10.00000000       9.94871795       9.89743590       9.84615385       9.79487179       9.74358974       9.69230769       9.64102564       9.58974359       9.53846154       9.48717949       9.43589744       9.38461538       9.33333333       9.28205128       9.23076923       9.17948718       9.12820513       9.07692308       9.02564103
         8.97435897       8.92307692       8.87179487       8.82051282       8.76923077       8.71794872       8.66666667       8.61538462       8.56410256       8.51282051       8.46153846       8.41025641       8.35897436       8.30769231       8.25641026       8.20512821       8.15384615       8.10256410       8.05128205       8.00000000
        10.00000000       9.94871795       9.89743590       9.84615385       9.79487179       9.74358974       9.69230769       9.64102564       9.58974359       9.53846154       9.48717949       9.43589744       9.38461538       9.33333333       9.28205128       9.23076923       9.17948718       9.12820513       9.07692308       9.02564103
         8.97435897       8.92307692       8.87179487       8.82051282       8.76923077       8.71794872       8.66666667       8.61538462       8.56410256       8.51282051       8.46153846       8.41025641       8.35897436       8.30769231       8.25641026       8.20512821       8.15384615       8.10256410       8.05128205       8.00000000
        10.00000000       9.94871795       9.89743590       9.84615385       9.79487179       9.74358974       9.69230769       9.64102564       9.58974359       9.53846154       9.48717949       9.43589744       9.38461538       9.33333333       9.28205128       9.23076923       9.17948718       9.12820513       9.07692308       9.02564103
         8.97435897       8.92307692       8.87179487       8.82051282       8.76923077       8.71794872       8.66666667       8.61538462       8.56410256       8.51282051       8.46153846       8.41025641       8.35897436       8.30769231       8.25641026       8.20512821       8.15384615       8.10256410       8.05128205       8.00000000
        10.00000000       9.94871795       9.89743590       9.84615385       9.79487179       9.74358974       9.69230769       9.64102564       9.58974359       9.53846154       9.48717949       9.43589744       9.38461538       9.33333333       9.28205128       9.23076923       9.17948718       9.12820513       9.07692308       9.02564103
         8.97435897       8.92307692       8.87179487       8.82051282       8.76923077       8.71794872       8.66666667       8.61538462       8.56410256       8.51282051       8.46153846       8.41025641       8.35897436       8.30769231       8.25641026       8.20512821       8.15384615       8.10256410       8.05128205       8.00000000
        10.00000000       9.94871795       9.89743590       9.84615385       9.79487179       9.74358974       9.69230769       9.64102564       9.58974359       9.53846154       9.48717949       9.43589744       9.38461538       9.33333333       9.28205128       9.23076923       9.17948718       9.12820513       9.07692308       9.02564103
         8.97435897       8.92307692       8.87179487       8.82051282       8.76923077       8.71794872       8.66666667       8.61538462       8.56410256       8.51282051       8.46153846       8.41025641       8.35897436       8.30769231       8.25641026       8.20512821       8.15384615       8.10256410       8.05128205       8.00000000
        10.00000000       9.94871795       9.89743590       9.84615385       9.79487179       9.74358974       9.69230769       9.64102564       9.58974359       9.53846154       9.48717949       9.43589744       9.38461538       9.33333333       9.28205128       9.23076923       9.17948718       9.12820513       9.07692308       9.02564103
         8.97435897       8.92307692       8.87179487       8.82051282       8.76923077       8.71794872       8.66666667       8.61538462       8.56410256       8.51282051       8.46153846       8.41025641       8.35897436       8.30769231       8.25641026       8.20512821       8.15384615       8.10256410       8.05128205       8.00000000
        10.00000000       9.94871795       9.89743590       9.84615385       9.79487179       9.74358974       9.69230769       9.64102564       9.58974359       9.53846154       9.48717949       9.43589744       9.38461538       9.33333333       9.28205128       9.23076923       9.17948718       9.12820513       9.07692308       9.02564103
         8.97435897       8.92307692       8.87179487       8.82051282       8.76923077       8.71794872       8.66666667       8.61538462       8.56410256       8.51282051       8.46153846       8.41025641       8.35897436       8.30769231       8.25641026       8.20512821       8.15384615       8.10256410       8.05128205       8.00000000
        10.00000000       9.94871795       9.89743590       9.84615385       9.79487179       9.74358974       9.69230769       9.64102564       9.58974359       9.53846154       9.48717949       9.43589744       9.38461538       9.33333333       9.28205128       9.23076923       9.17948718       9.12820513       9.07692308       9.02564103
         8.97435897       8.92307692       8.87179487       8.82051282       8.76923077       8.71794872       8.66666667       8.61538462       8.56410256       8.51282051       8.46153846       8.41025641       8.35897436       8.30769231       8.25641026       8.20512821       8.15384615       8.10256410       8.05128205       8.00000000
        10.00000000       9.94871795       9.89743590       9.84615385       9.79487179       9.74358974       9.69230769       9.64102564       9.58974359       9.53846154       9.48717949       9.43589744       9.38461538       9.33333333       9.28205128       9.23076923       9.17948718       9.12820513       9.07692308       9.02564103
         8.97435897       8.92307692       8.87179487       8.82051282       8.76923077       8.71794872       8.66666667       8.61538462       8.56410256       8.51282051       8.46153846       8.41025641       8.35897436       8.30769231       8.25641026       8.20512821       8.15384615       8.10256410       8.05128205       8.00000000
        10.00000000       9.94871795       9.89743590       9.84615385       9.79487179       9.74358974       9.69230769       9.64102564       9.58974359       9.53846154       9.48717949       9.43589744       9.38461538       9.33333333       9.28205128       9.23076923       9.17948718       9.12820513       9.07692308       9.02564103
         8.97435897       8.92307692       8.87179487       8.82051282       8.76923077       8.71794872       8.66666667       8.61538462       8.56410256       8.51282051       8.46153846       8.41025641       8.35897436       8.30769231       8.25641026       8.20512821       8.15384615       8.10256410       8.05128205       8.00000000
        10.00000000       9.94871795       9.89743590       9.84615385       9.79487179       9.74358974       9.69230769       9.64102564       9.58974359       9.53846154       9.48717949       9.43589744       9.38461538       9.33333333       9.28205128       9.23076923       9.17948718       9.12820513       9.07692308       9.02564103
         8.97435897       8.92307692       8.87179487       8.82051282       8.76923077       8.71794872       8.66666667       8.61538462       8.56410256       8.51282051       8.46153846       8.41025641       8.35897436       8.30769231       8.25641026       8.20512821       8.15384615       8.10256410       8.05128205       8.00000000
        10.00000000       9.94871795       9.89743590       9.84615385       9.79487179       9.74358974       9.69230769       9.64102564       9.58974359       9.53846154       9.48717949       9.43589744       9.38461538       9.33333333       9.28205128       9.23076923       9.17948718       9.12820513       9.07692308       9.02564103
         8.97435897       8.92307692       8.87179487       8.82051282       8.76923077       8.71794872       8.66666667       8.61538462       8.56410256       8.51282051       8.46153846       8.41025641       8.35897436       8.30769231       8.25641026       8.20512821       8.15384615       8.10256410       8.05128205       8.00000000
        10.00000000       9.94871795       9.89743590       9.84615385       9.79487179       9.74358974       9.69230769       9.64102564       9.58974359       9.53846154       9.48717949       9.43589744       9.38461538       9.33333333       9.28205128       9.23076923       9.17948718       9.12820513       9.07692308       9.02564103
         8.97435897       8.92307692       8.87179487       8.82051282       8.76923077       8.71794872       8.66666667       8.61538462       8.56410256       8.51282051       8.46153846       8.41025641       8.35897436       8.30769231       8.25641026       8.20512821       8.15384615       8.10256410       8.05128205       8.00000000
        10.00000000       9.94871795       9.89743590       9.84615385       9.79487179       9.74358974       9.69230769       9.64102564       9.58974359       9.53846154       9.48717949       9.43589744       9.38461538       9.33333333       9.28205128       9.23076923       9.17948718       9.12820513       9.07692308       9.02564103
         8.97435897       8.92307692       8.87179487       8.82051282       8.76923077       8.71794872       8.66666667       8.61538462       8.56410256       8.51282051       8.46153846       8.41025641       8.35897436       8.30769231       8.25641026       8.20512821       8.15384615       8.10256410       8.05128205       8.00000000
  botm  LAYERED
    CONSTANT       5.00000000
    CONSTANT       0.00000000
    CONSTANT      -1.00000000
  idomain
    CONSTANT  1
END griddata

