# File generated by Flopy version 3.3.2 on 01/09/2021 at 16:13:16.
BEGIN options
  SAVE_FLOWS
END options

BEGIN dimensions
  MAXBOUND  10
END dimensions

BEGIN period  1
  3 7 19       7.00000000       0.01000000
  3 27 19       9.00000000       0.01000000
  3 23 39       8.00000000       0.01000000
  3 20 33       8.00000000       0.01000000
  3 15 35       8.00000000       0.01000000
  3 16 31       8.00000000       0.01000000
  3 1 16      10.00000000       0.01000000
  3 12 39       6.00000000       0.01000000
  3 3 30       8.00000000       0.01000000
  3 7 7       9.00000000       0.01000000
END period  1

