# File generated by Flopy version 3.3.2 on 01/09/2021 at 16:13:16.
BEGIN options
  READASARRAYS
  SAVE_FLOWS
END options

BEGIN period  1
  recharge
    INTERNAL  FACTOR  1.0
    2.53678336E-08  2.53678336E-08  2.53678336E-08  2.53678336E-08  2.53678336E-08  2.53678336E-08  2.53678336E-08  2.53678336E-08  2.53678336E-08  2.53678336E-08  2.53678336E-08  2.53678336E-08  2.53678336E-08  2.53678336E-08  2.53678336E-08  2.53678336E-08  2.53678336E-08  2.53678336E-08  2.53678336E-08  2.53678336E-08
    2.53678336E-08  2.53678336E-08  2.53678336E-08  2.53678336E-08  2.53678336E-08  2.53678336E-08  2.53678336E-08  2.53678336E-08  2.53678336E-08  2.53678336E-08  2.53678336E-08  2.53678336E-08  2.53678336E-08  2.53678336E-08  2.53678336E-08  2.53678336E-08  2.53678336E-08  2.53678336E-08  2.53678336E-08  2.53678336E-08
    2.53678336E-08  2.53678336E-08  2.53678336E-08  2.53678336E-08  2.53678336E-08  2.53678336E-08  2.53678336E-08  2.53678336E-08  2.53678336E-08  2.53678336E-08  2.53678336E-08  2.53678336E-08  2.53678336E-08  2.53678336E-08  2.53678336E-08  2.53678336E-08  2.53678336E-08  2.53678336E-08  2.53678336E-08  2.53678336E-08
    2.53678336E-08  2.53678336E-08  2.53678336E-08  2.53678336E-08  2.53678336E-08  2.53678336E-08  2.53678336E-08  2.53678336E-08  2.53678336E-08  2.53678336E-08  2.53678336E-08  2.53678336E-08  2.53678336E-08  2.53678336E-08  2.53678336E-08  2.53678336E-08  2.53678336E-08  2.53678336E-08  2.53678336E-08  2.53678336E-08
    2.53678336E-08  2.53678336E-08  2.53678336E-08  2.53678336E-08  2.53678336E-08  2.53678336E-08  2.53678336E-08  2.53678336E-08  2.53678336E-08  2.53678336E-08  2.53678336E-08  2.53678336E-08  2.53678336E-08  2.53678336E-08  2.53678336E-08  2.53678336E-08  2.53678336E-08  2.53678336E-08  2.53678336E-08  2.53678336E-08
    2.53678336E-08  2.53678336E-08  2.53678336E-08  2.53678336E-08  2.53678336E-08  2.53678336E-08  2.53678336E-08  2.53678336E-08  2.53678336E-08  2.53678336E-08  2.53678336E-08  2.53678336E-08  2.53678336E-08  2.53678336E-08  2.53678336E-08  2.53678336E-08  2.53678336E-08  2.53678336E-08  2.53678336E-08  2.53678336E-08
    2.53678336E-08  2.53678336E-08  2.53678336E-08  2.53678336E-08  2.53678336E-08  2.53678336E-08  2.53678336E-08  2.53678336E-08  2.53678336E-08  2.53678336E-08  2.53678336E-08  2.53678336E-08  2.53678336E-08  2.53678336E-08  2.53678336E-08  2.53678336E-08  2.53678336E-08  2.53678336E-08  2.53678336E-08  2.53678336E-08
    2.53678336E-08  2.53678336E-08  2.53678336E-08  2.53678336E-08  2.53678336E-08  2.53678336E-08  2.53678336E-08  2.53678336E-08  2.53678336E-08  2.53678336E-08  2.53678336E-08  2.53678336E-08  2.53678336E-08  2.53678336E-08  2.53678336E-08  2.53678336E-08  2.53678336E-08  2.53678336E-08  2.53678336E-08  2.53678336E-08
    2.53678336E-08  2.53678336E-08  2.53678336E-08  2.53678336E-08  2.53678336E-08  2.53678336E-08  2.53678336E-08  2.53678336E-08  2.53678336E-08  2.53678336E-08  2.53678336E-08  2.53678336E-08  2.53678336E-08  2.53678336E-08  2.53678336E-08  2.53678336E-08  2.53678336E-08  2.53678336E-08  2.53678336E-08  2.53678336E-08
    2.53678336E-08  2.53678336E-08  2.53678336E-08  2.53678336E-08  2.53678336E-08  2.53678336E-08  2.53678336E-08  2.53678336E-08  2.53678336E-08  2.53678336E-08  2.53678336E-08  2.53678336E-08  2.53678336E-08  2.53678336E-08  2.53678336E-08  2.53678336E-08  2.53678336E-08  2.53678336E-08  2.53678336E-08  2.53678336E-08
    2.53678336E-08  2.53678336E-08  2.53678336E-08  2.53678336E-08  2.53678336E-08  2.53678336E-08  2.53678336E-08  2.53678336E-08  2.53678336E-08  2.53678336E-08  2.53678336E-08  2.53678336E-08  2.53678336E-08  2.53678336E-08  2.53678336E-08  2.53678336E-08  2.53678336E-08  2.53678336E-08  2.53678336E-08  2.53678336E-08
    2.53678336E-08  2.53678336E-08  2.53678336E-08  2.53678336E-08  2.53678336E-08  2.53678336E-08  2.53678336E-08  2.53678336E-08  2.53678336E-08  2.53678336E-08  2.53678336E-08  2.53678336E-08  2.53678336E-08  2.53678336E-08  2.53678336E-08  2.53678336E-08  2.53678336E-08  2.53678336E-08  2.53678336E-08  2.53678336E-08
    2.53678336E-08  2.53678336E-08  2.53678336E-08  2.53678336E-08  2.53678336E-08  2.53678336E-08  2.53678336E-08  2.53678336E-08  2.53678336E-08  2.53678336E-08  2.53678336E-08  2.53678336E-08  2.53678336E-08  2.53678336E-08  2.53678336E-08  2.53678336E-08  2.53678336E-08  2.53678336E-08  2.53678336E-08  2.53678336E-08
    2.53678336E-08  2.53678336E-08  2.53678336E-08  2.53678336E-08  2.53678336E-08  2.53678336E-08  2.53678336E-08  2.53678336E-08  2.53678336E-08  2.53678336E-08  2.53678336E-08  2.53678336E-08  2.53678336E-08  2.53678336E-08  2.53678336E-08  2.53678336E-08  2.53678336E-08  2.53678336E-08  2.53678336E-08  2.53678336E-08
    2.53678336E-08  2.53678336E-08  2.53678336E-08  2.53678336E-08  2.53678336E-08  2.53678336E-08  2.53678336E-08  2.53678336E-08  2.53678336E-08  2.53678336E-08  2.53678336E-08  2.53678336E-08  2.53678336E-08  2.53678336E-08  2.53678336E-08  2.53678336E-08  2.53678336E-08  2.53678336E-08  2.53678336E-08  2.53678336E-08
    2.53678336E-08  2.53678336E-08  2.53678336E-08  2.53678336E-08  2.53678336E-08  2.53678336E-08  2.53678336E-08  2.53678336E-08  2.53678336E-08  2.53678336E-08  2.53678336E-08  2.53678336E-08  2.53678336E-08  2.53678336E-08  2.53678336E-08  2.53678336E-08  2.53678336E-08  2.53678336E-08  2.53678336E-08  2.53678336E-08
    2.53678336E-08  2.53678336E-08  2.53678336E-08  2.53678336E-08  2.53678336E-08  2.53678336E-08  2.53678336E-08  2.53678336E-08  2.53678336E-08  2.53678336E-08  2.53678336E-08  2.53678336E-08  2.53678336E-08  2.53678336E-08  2.53678336E-08  2.53678336E-08  2.53678336E-08  2.53678336E-08  2.53678336E-08  2.53678336E-08
    2.53678336E-08  2.53678336E-08  2.53678336E-08  2.53678336E-08  2.53678336E-08  2.53678336E-08  2.53678336E-08  2.53678336E-08  2.53678336E-08  2.53678336E-08  2.53678336E-08  2.53678336E-08  2.53678336E-08  2.53678336E-08  2.53678336E-08  2.53678336E-08  2.53678336E-08  2.53678336E-08  2.53678336E-08  2.53678336E-08
    2.53678336E-08  2.53678336E-08  2.53678336E-08  2.53678336E-08  2.53678336E-08  2.53678336E-08  2.53678336E-08  2.53678336E-08  2.53678336E-08  2.53678336E-08  2.53678336E-08  2.53678336E-08  2.53678336E-08  2.53678336E-08  2.53678336E-08  2.53678336E-08  2.53678336E-08  2.53678336E-08  2.53678336E-08  2.53678336E-08
    2.53678336E-08  2.53678336E-08  2.53678336E-08  2.53678336E-08  2.53678336E-08  2.53678336E-08  2.53678336E-08  2.53678336E-08  2.53678336E-08  2.53678336E-08  2.53678336E-08  2.53678336E-08  2.53678336E-08  2.53678336E-08  2.53678336E-08  2.53678336E-08  2.53678336E-08  2.53678336E-08  2.53678336E-08  2.53678336E-08
    2.53678336E-08  2.53678336E-08  2.53678336E-08  2.53678336E-08  2.53678336E-08  2.53678336E-08  2.53678336E-08  2.53678336E-08  2.53678336E-08  2.53678336E-08  2.53678336E-08  2.53678336E-08  2.53678336E-08  2.53678336E-08  2.53678336E-08  2.53678336E-08  2.53678336E-08  2.53678336E-08  2.53678336E-08  2.53678336E-08
    2.53678336E-08  2.53678336E-08  2.53678336E-08  2.53678336E-08  2.53678336E-08  2.53678336E-08  2.53678336E-08  2.53678336E-08  2.53678336E-08  2.53678336E-08  2.53678336E-08  2.53678336E-08  2.53678336E-08  2.53678336E-08  2.53678336E-08  2.53678336E-08  2.53678336E-08  2.53678336E-08  2.53678336E-08  2.53678336E-08
    2.53678336E-08  2.53678336E-08  2.53678336E-08  2.53678336E-08  2.53678336E-08  2.53678336E-08  2.53678336E-08  2.53678336E-08  2.53678336E-08  2.53678336E-08  2.53678336E-08  2.53678336E-08  2.53678336E-08  2.53678336E-08  2.53678336E-08  2.53678336E-08  2.53678336E-08  2.53678336E-08  2.53678336E-08  2.53678336E-08
    2.53678336E-08  2.53678336E-08  2.53678336E-08  2.53678336E-08  2.53678336E-08  2.53678336E-08  2.53678336E-08  2.53678336E-08  2.53678336E-08  2.53678336E-08  2.53678336E-08  2.53678336E-08  2.53678336E-08  2.53678336E-08  2.53678336E-08  2.53678336E-08  2.53678336E-08  2.53678336E-08  2.53678336E-08  2.53678336E-08
    2.53678336E-08  2.53678336E-08  2.53678336E-08  2.53678336E-08  2.53678336E-08  2.53678336E-08  2.53678336E-08  2.53678336E-08  2.53678336E-08  2.53678336E-08  2.53678336E-08  2.53678336E-08  2.53678336E-08  2.53678336E-08  2.53678336E-08  2.53678336E-08  2.53678336E-08  2.53678336E-08  2.53678336E-08  2.53678336E-08
    2.53678336E-08  2.53678336E-08  2.53678336E-08  2.53678336E-08  2.53678336E-08  2.53678336E-08  2.53678336E-08  2.53678336E-08  2.53678336E-08  2.53678336E-08  2.53678336E-08  2.53678336E-08  2.53678336E-08  2.53678336E-08  2.53678336E-08  2.53678336E-08  2.53678336E-08  2.53678336E-08  2.53678336E-08  2.53678336E-08
    2.53678336E-08  2.53678336E-08  2.53678336E-08  2.53678336E-08  2.53678336E-08  2.53678336E-08  2.53678336E-08  2.53678336E-08  2.53678336E-08  2.53678336E-08  2.53678336E-08  2.53678336E-08  2.53678336E-08  2.53678336E-08  2.53678336E-08  2.53678336E-08  2.53678336E-08  2.53678336E-08  2.53678336E-08  2.53678336E-08
    2.53678336E-08  2.53678336E-08  2.53678336E-08  2.53678336E-08  2.53678336E-08  2.53678336E-08  2.53678336E-08  2.53678336E-08  2.53678336E-08  2.53678336E-08  2.53678336E-08  2.53678336E-08  2.53678336E-08  2.53678336E-08  2.53678336E-08  2.53678336E-08  2.53678336E-08  2.53678336E-08  2.53678336E-08  2.53678336E-08
    2.53678336E-08  2.53678336E-08  2.53678336E-08  2.53678336E-08  2.53678336E-08  2.53678336E-08  2.53678336E-08  2.53678336E-08  2.53678336E-08  2.53678336E-08  2.53678336E-08  2.53678336E-08  2.53678336E-08  2.53678336E-08  2.53678336E-08  2.53678336E-08  2.53678336E-08  2.53678336E-08  2.53678336E-08  2.53678336E-08
    2.53678336E-08  2.53678336E-08  2.53678336E-08  2.53678336E-08  2.53678336E-08  2.53678336E-08  2.53678336E-08  2.53678336E-08  2.53678336E-08  2.53678336E-08  2.53678336E-08  2.53678336E-08  2.53678336E-08  2.53678336E-08  2.53678336E-08  2.53678336E-08  2.53678336E-08  2.53678336E-08  2.53678336E-08  2.53678336E-08
    1.58548960E-08  1.58548960E-08  1.58548960E-08  1.58548960E-08  1.58548960E-08  1.58548960E-08  1.58548960E-08  1.58548960E-08  1.58548960E-08  1.58548960E-08  1.58548960E-08  1.58548960E-08  1.58548960E-08  1.58548960E-08  1.58548960E-08  1.58548960E-08  1.58548960E-08  1.58548960E-08  1.58548960E-08  1.58548960E-08
    1.58548960E-08  1.58548960E-08  1.58548960E-08  1.58548960E-08  1.58548960E-08  1.58548960E-08  1.58548960E-08  1.58548960E-08  1.58548960E-08  1.58548960E-08  1.58548960E-08  1.58548960E-08  1.58548960E-08  1.58548960E-08  1.58548960E-08  1.58548960E-08  1.58548960E-08  1.58548960E-08  1.58548960E-08  1.58548960E-08
    1.58548960E-08  1.58548960E-08  1.58548960E-08  1.58548960E-08  1.58548960E-08  1.58548960E-08  1.58548960E-08  1.58548960E-08  1.58548960E-08  1.58548960E-08  1.58548960E-08  1.58548960E-08  1.58548960E-08  1.58548960E-08  1.58548960E-08  1.58548960E-08  1.58548960E-08  1.58548960E-08  1.58548960E-08  1.58548960E-08
    1.58548960E-08  1.58548960E-08  1.58548960E-08  1.58548960E-08  1.58548960E-08  1.58548960E-08  1.58548960E-08  1.58548960E-08  1.58548960E-08  1.58548960E-08  1.58548960E-08  1.58548960E-08  1.58548960E-08  1.58548960E-08  1.58548960E-08  1.58548960E-08  1.58548960E-08  1.58548960E-08  1.58548960E-08  1.58548960E-08
    1.58548960E-08  1.58548960E-08  1.58548960E-08  1.58548960E-08  1.58548960E-08  1.58548960E-08  1.58548960E-08  1.58548960E-08  1.58548960E-08  1.58548960E-08  1.58548960E-08  1.58548960E-08  1.58548960E-08  1.58548960E-08  1.58548960E-08  1.58548960E-08  1.58548960E-08  1.58548960E-08  1.58548960E-08  1.58548960E-08
    1.58548960E-08  1.58548960E-08  1.58548960E-08  1.58548960E-08  1.58548960E-08  1.58548960E-08  1.58548960E-08  1.58548960E-08  1.58548960E-08  1.58548960E-08  1.58548960E-08  1.58548960E-08  1.58548960E-08  1.58548960E-08  1.58548960E-08  1.58548960E-08  1.58548960E-08  1.58548960E-08  1.58548960E-08  1.58548960E-08
    1.58548960E-08  1.58548960E-08  1.58548960E-08  1.58548960E-08  1.58548960E-08  1.58548960E-08  1.58548960E-08  1.58548960E-08  1.58548960E-08  1.58548960E-08  1.58548960E-08  1.58548960E-08  1.58548960E-08  1.58548960E-08  1.58548960E-08  1.58548960E-08  1.58548960E-08  1.58548960E-08  1.58548960E-08  1.58548960E-08
    1.58548960E-08  1.58548960E-08  1.58548960E-08  1.58548960E-08  1.58548960E-08  1.58548960E-08  1.58548960E-08  1.58548960E-08  1.58548960E-08  1.58548960E-08  1.58548960E-08  1.58548960E-08  1.58548960E-08  1.58548960E-08  1.58548960E-08  1.58548960E-08  1.58548960E-08  1.58548960E-08  1.58548960E-08  1.58548960E-08
    1.58548960E-08  1.58548960E-08  1.58548960E-08  1.58548960E-08  1.58548960E-08  1.58548960E-08  1.58548960E-08  1.58548960E-08  1.58548960E-08  1.58548960E-08  1.58548960E-08  1.58548960E-08  1.58548960E-08  1.58548960E-08  1.58548960E-08  1.58548960E-08  1.58548960E-08  1.58548960E-08  1.58548960E-08  1.58548960E-08
    1.58548960E-08  1.58548960E-08  1.58548960E-08  1.58548960E-08  1.58548960E-08  1.58548960E-08  1.58548960E-08  1.58548960E-08  1.58548960E-08  1.58548960E-08  1.58548960E-08  1.58548960E-08  1.58548960E-08  1.58548960E-08  1.58548960E-08  1.58548960E-08  1.58548960E-08  1.58548960E-08  1.58548960E-08  1.58548960E-08
    1.58548960E-08  1.58548960E-08  1.58548960E-08  1.58548960E-08  1.58548960E-08  1.58548960E-08  1.58548960E-08  1.58548960E-08  1.58548960E-08  1.58548960E-08  1.58548960E-08  1.58548960E-08  1.58548960E-08  1.58548960E-08  1.58548960E-08  1.58548960E-08  1.58548960E-08  1.58548960E-08  1.58548960E-08  1.58548960E-08
    1.58548960E-08  1.58548960E-08  1.58548960E-08  1.58548960E-08  1.58548960E-08  1.58548960E-08  1.58548960E-08  1.58548960E-08  1.58548960E-08  1.58548960E-08  1.58548960E-08  1.58548960E-08  1.58548960E-08  1.58548960E-08  1.58548960E-08  1.58548960E-08  1.58548960E-08  1.58548960E-08  1.58548960E-08  1.58548960E-08
    1.58548960E-08  1.58548960E-08  1.58548960E-08  1.58548960E-08  1.58548960E-08  1.58548960E-08  1.58548960E-08  1.58548960E-08  1.58548960E-08  1.58548960E-08  1.58548960E-08  1.58548960E-08  1.58548960E-08  1.58548960E-08  1.58548960E-08  1.58548960E-08  1.58548960E-08  1.58548960E-08  1.58548960E-08  1.58548960E-08
    1.58548960E-08  1.58548960E-08  1.58548960E-08  1.58548960E-08  1.58548960E-08  1.58548960E-08  1.58548960E-08  1.58548960E-08  1.58548960E-08  1.58548960E-08  1.58548960E-08  1.58548960E-08  1.58548960E-08  1.58548960E-08  1.58548960E-08  1.58548960E-08  1.58548960E-08  1.58548960E-08  1.58548960E-08  1.58548960E-08
    1.58548960E-08  1.58548960E-08  1.58548960E-08  1.58548960E-08  1.58548960E-08  1.58548960E-08  1.58548960E-08  1.58548960E-08  1.58548960E-08  1.58548960E-08  1.58548960E-08  1.58548960E-08  1.58548960E-08  1.58548960E-08  1.58548960E-08  1.58548960E-08  1.58548960E-08  1.58548960E-08  1.58548960E-08  1.58548960E-08
    1.58548960E-08  1.58548960E-08  1.58548960E-08  1.58548960E-08  1.58548960E-08  1.58548960E-08  1.58548960E-08  1.58548960E-08  1.58548960E-08  1.58548960E-08  1.58548960E-08  1.58548960E-08  1.58548960E-08  1.58548960E-08  1.58548960E-08  1.58548960E-08  1.58548960E-08  1.58548960E-08  1.58548960E-08  1.58548960E-08
    1.58548960E-08  1.58548960E-08  1.58548960E-08  1.58548960E-08  1.58548960E-08  1.58548960E-08  1.58548960E-08  1.58548960E-08  1.58548960E-08  1.58548960E-08  1.58548960E-08  1.58548960E-08  1.58548960E-08  1.58548960E-08  1.58548960E-08  1.58548960E-08  1.58548960E-08  1.58548960E-08  1.58548960E-08  1.58548960E-08
    1.58548960E-08  1.58548960E-08  1.58548960E-08  1.58548960E-08  1.58548960E-08  1.58548960E-08  1.58548960E-08  1.58548960E-08  1.58548960E-08  1.58548960E-08  1.58548960E-08  1.58548960E-08  1.58548960E-08  1.58548960E-08  1.58548960E-08  1.58548960E-08  1.58548960E-08  1.58548960E-08  1.58548960E-08  1.58548960E-08
    1.58548960E-08  1.58548960E-08  1.58548960E-08  1.58548960E-08  1.58548960E-08  1.58548960E-08  1.58548960E-08  1.58548960E-08  1.58548960E-08  1.58548960E-08  1.58548960E-08  1.58548960E-08  1.58548960E-08  1.58548960E-08  1.58548960E-08  1.58548960E-08  1.58548960E-08  1.58548960E-08  1.58548960E-08  1.58548960E-08
    1.58548960E-08  1.58548960E-08  1.58548960E-08  1.58548960E-08  1.58548960E-08  1.58548960E-08  1.58548960E-08  1.58548960E-08  1.58548960E-08  1.58548960E-08  1.58548960E-08  1.58548960E-08  1.58548960E-08  1.58548960E-08  1.58548960E-08  1.58548960E-08  1.58548960E-08  1.58548960E-08  1.58548960E-08  1.58548960E-08
    2.53678336E-08  2.53678336E-08  2.53678336E-08  2.53678336E-08  2.53678336E-08  2.53678336E-08  2.53678336E-08  2.53678336E-08  2.53678336E-08  2.53678336E-08  2.53678336E-08  2.53678336E-08  2.53678336E-08  2.53678336E-08  2.53678336E-08  2.53678336E-08  2.53678336E-08  2.53678336E-08  2.53678336E-08  2.53678336E-08
    2.53678336E-08  2.53678336E-08  2.53678336E-08  2.53678336E-08  2.53678336E-08  2.53678336E-08  2.53678336E-08  2.53678336E-08  2.53678336E-08  2.53678336E-08  2.53678336E-08  2.53678336E-08  2.53678336E-08  2.53678336E-08  2.53678336E-08  2.53678336E-08  2.53678336E-08  2.53678336E-08  2.53678336E-08  2.53678336E-08
    2.53678336E-08  2.53678336E-08  2.53678336E-08  2.53678336E-08  2.53678336E-08  2.53678336E-08  2.53678336E-08  2.53678336E-08  2.53678336E-08  2.53678336E-08  2.53678336E-08  2.53678336E-08  2.53678336E-08  2.53678336E-08  2.53678336E-08  2.53678336E-08  2.53678336E-08  2.53678336E-08  2.53678336E-08  2.53678336E-08
    2.53678336E-08  2.53678336E-08  2.53678336E-08  2.53678336E-08  2.53678336E-08  2.53678336E-08  2.53678336E-08  2.53678336E-08  2.53678336E-08  2.53678336E-08  2.53678336E-08  2.53678336E-08  2.53678336E-08  2.53678336E-08  2.53678336E-08  2.53678336E-08  2.53678336E-08  2.53678336E-08  2.53678336E-08  2.53678336E-08
    2.53678336E-08  2.53678336E-08  2.53678336E-08  2.53678336E-08  2.53678336E-08  2.53678336E-08  2.53678336E-08  2.53678336E-08  2.53678336E-08  2.53678336E-08  2.53678336E-08  2.53678336E-08  2.53678336E-08  2.53678336E-08  2.53678336E-08  2.53678336E-08  2.53678336E-08  2.53678336E-08  2.53678336E-08  2.53678336E-08
    2.53678336E-08  2.53678336E-08  2.53678336E-08  2.53678336E-08  2.53678336E-08  2.53678336E-08  2.53678336E-08  2.53678336E-08  2.53678336E-08  2.53678336E-08  2.53678336E-08  2.53678336E-08  2.53678336E-08  2.53678336E-08  2.53678336E-08  2.53678336E-08  2.53678336E-08  2.53678336E-08  2.53678336E-08  2.53678336E-08
    2.53678336E-08  2.53678336E-08  2.53678336E-08  2.53678336E-08  2.53678336E-08  2.53678336E-08  2.53678336E-08  2.53678336E-08  2.53678336E-08  2.53678336E-08  2.53678336E-08  2.53678336E-08  2.53678336E-08  2.53678336E-08  2.53678336E-08  2.53678336E-08  2.53678336E-08  2.53678336E-08  2.53678336E-08  2.53678336E-08
    2.53678336E-08  2.53678336E-08  2.53678336E-08  2.53678336E-08  2.53678336E-08  2.53678336E-08  2.53678336E-08  2.53678336E-08  2.53678336E-08  2.53678336E-08  2.53678336E-08  2.53678336E-08  2.53678336E-08  2.53678336E-08  2.53678336E-08  2.53678336E-08  2.53678336E-08  2.53678336E-08  2.53678336E-08  2.53678336E-08
    2.53678336E-08  2.53678336E-08  2.53678336E-08  2.53678336E-08  2.53678336E-08  2.53678336E-08  2.53678336E-08  2.53678336E-08  2.53678336E-08  2.53678336E-08  2.53678336E-08  2.53678336E-08  2.53678336E-08  2.53678336E-08  2.53678336E-08  2.53678336E-08  2.53678336E-08  2.53678336E-08  2.53678336E-08  2.53678336E-08
    2.53678336E-08  2.53678336E-08  2.53678336E-08  2.53678336E-08  2.53678336E-08  2.53678336E-08  2.53678336E-08  2.53678336E-08  2.53678336E-08  2.53678336E-08  2.53678336E-08  2.53678336E-08  2.53678336E-08  2.53678336E-08  2.53678336E-08  2.53678336E-08  2.53678336E-08  2.53678336E-08  2.53678336E-08  2.53678336E-08
END period  1

