BEGIN options
  SAVE_FLOWS
END options

BEGIN dimensions
  MAXBOUND  100
END dimensions

BEGIN period  1
 3 25 6      10.00000000       0.01000000
  3 12 3       8.00000000       0.01000000
  3 28 25       8.00000000       0.01000000
  3 11 34      10.00000000       0.01000000
  3 23 26       6.00000000       0.01000000
  3 14 5       9.00000000       0.01000000
  3 18 6       5.00000000       0.01000000
  3 30 11       7.00000000       0.01000000
  3 24 20      10.00000000       0.01000000
  3 27 36       8.00000000       0.01000000
END period  1

