BEGIN options
  SAVE_FLOWS
END options

BEGIN dimensions
  MAXBOUND  31
END dimensions

BEGIN period  1
  1 1 40       7.00000000       0.01000000       5.00000000
  1 2 40       7.00000000       0.01000000       5.00000000
  1 3 40       7.00000000       0.01000000       5.00000000
  1 4 40       7.00000000       0.01000000       5.00000000
  1 5 40       7.00000000       0.01000000       5.00000000
  1 6 40       7.00000000       0.01000000       5.00000000
  1 7 40       7.00000000       0.01000000       5.00000000
  1 8 40       7.00000000       0.01000000       5.00000000
  1 9 40       7.00000000       0.01000000       5.00000000
  1 10 40       7.00000000       0.01000000       5.00000000
  1 11 40       7.00000000       0.01000000       5.00000000
  1 12 40       7.00000000       0.01000000       5.00000000
  1 13 40       7.00000000       0.01000000       5.00000000
  1 14 40       7.00000000       0.01000000       5.00000000
  1 15 40       7.00000000       0.01000000       5.00000000
  1 16 40       7.00000000       0.01000000       5.00000000
  1 17 40       7.00000000       0.01000000       5.00000000
  1 18 40       7.00000000       0.01000000       5.00000000
  1 19 40       7.00000000       0.01000000       5.00000000
  1 20 40       7.00000000       0.01000000       5.00000000
  1 21 40       7.00000000       0.01000000       5.00000000
  1 22 40       7.00000000       0.01000000       5.00000000
  1 23 40       7.00000000       0.01000000       5.00000000
  1 24 40       7.00000000       0.01000000       5.00000000
  1 25 40       7.00000000       0.01000000       5.00000000
  1 26 40       7.00000000       0.01000000       5.00000000
  1 27 40       7.00000000       0.01000000       5.00000000
  1 28 40       7.00000000       0.01000000       5.00000000
  1 29 40       7.00000000       0.01000000       5.00000000
  1 30 40       7.00000000       0.01000000       5.00000000
  1 30 40       7.00000000       0.01000000       5.00000000
END period  1

