BEGIN options
  SAVE_FLOWS
END options

BEGIN dimensions
  MAXBOUND  1200
  NSEG  3
END dimensions

BEGIN period  1
  1 1 1       9.50000000  1.26839168E-08       7.50000000       0.20000000       0.50000000       0.30000000       0.10000000       1.00000000
  1 1 2       9.44871795  1.26839168E-08       7.44871795       0.20000000       0.50000000       0.30000000       0.10000000       1.00000000
  1 1 3       9.39743590  1.26839168E-08       7.39743590       0.20000000       0.50000000       0.30000000       0.10000000       1.00000000
  1 1 4       9.34615385  1.26839168E-08       7.34615385       0.20000000       0.50000000       0.30000000       0.10000000       1.00000000
  1 1 5       9.29487179  1.26839168E-08       7.29487179       0.20000000       0.50000000       0.30000000       0.10000000       1.00000000
  1 1 6       9.24358974  1.26839168E-08       7.24358974       0.20000000       0.50000000       0.30000000       0.10000000       1.00000000
  1 1 7       9.19230769  1.26839168E-08       7.19230769       0.20000000       0.50000000       0.30000000       0.10000000       1.00000000
  1 1 8       9.14102564  1.26839168E-08       7.14102564       0.20000000       0.50000000       0.30000000       0.10000000       1.00000000
  1 1 9       9.08974359  1.26839168E-08       7.08974359       0.20000000       0.50000000       0.30000000       0.10000000       1.00000000
  1 1 10       9.03846154  1.26839168E-08       7.03846154       0.20000000       0.50000000       0.30000000       0.10000000       1.00000000
  1 1 11       8.98717949  1.26839168E-08       6.98717949       0.20000000       0.50000000       0.30000000       0.10000000       1.00000000
  1 1 12       8.93589744  1.26839168E-08       6.93589744       0.20000000       0.50000000       0.30000000       0.10000000       1.00000000
  1 1 13       8.88461538  1.26839168E-08       6.88461538       0.20000000       0.50000000       0.30000000       0.10000000       1.00000000
  1 1 14       8.83333333  1.26839168E-08       6.83333333       0.20000000       0.50000000       0.30000000       0.10000000       1.00000000
  1 1 15       8.78205128  1.26839168E-08       6.78205128       0.20000000       0.50000000       0.30000000       0.10000000       1.00000000
  1 1 16       8.73076923  1.26839168E-08       6.73076923       0.20000000       0.50000000       0.30000000       0.10000000       1.00000000
  1 1 17       8.67948718  1.26839168E-08       6.67948718       0.20000000       0.50000000       0.30000000       0.10000000       1.00000000
  1 1 18       8.62820513  1.26839168E-08       6.62820513       0.20000000       0.50000000       0.30000000       0.10000000       1.00000000
  1 1 19       8.57692308  1.26839168E-08       6.57692308       0.20000000       0.50000000       0.30000000       0.10000000       1.00000000
  1 1 20       8.52564103  1.26839168E-08       6.52564103       0.20000000       0.50000000       0.30000000       0.10000000       1.00000000
  1 1 21       8.47435897  1.26839168E-08       6.47435897       0.20000000       0.50000000       0.30000000       0.10000000       1.00000000
  1 1 22       8.42307692  1.26839168E-08       6.42307692       0.20000000       0.50000000       0.30000000       0.10000000       1.00000000
  1 1 23       8.37179487  1.26839168E-08       6.37179487       0.20000000       0.50000000       0.30000000       0.10000000       1.00000000
  1 1 24       8.32051282  1.26839168E-08       6.32051282       0.20000000       0.50000000       0.30000000       0.10000000       1.00000000
  1 1 25       8.26923077  1.26839168E-08       6.26923077       0.20000000       0.50000000       0.30000000       0.10000000       1.00000000
  1 1 26       8.21794872  1.26839168E-08       6.21794872       0.20000000       0.50000000       0.30000000       0.10000000       1.00000000
  1 1 27       8.16666667  1.26839168E-08       6.16666667       0.20000000       0.50000000       0.30000000       0.10000000       1.00000000
  1 1 28       8.11538462  1.26839168E-08       6.11538462       0.20000000       0.50000000       0.30000000       0.10000000       1.00000000
  1 1 29       8.06410256  1.26839168E-08       6.06410256       0.20000000       0.50000000       0.30000000       0.10000000       1.00000000
  1 1 30       8.01282051  1.26839168E-08       6.01282051       0.20000000       0.50000000       0.30000000       0.10000000       1.00000000
  1 1 31       7.96153846  1.26839168E-08       5.96153846       0.20000000       0.50000000       0.30000000       0.10000000       1.00000000
  1 1 32       7.91025641  1.26839168E-08       5.91025641       0.20000000       0.50000000       0.30000000       0.10000000       1.00000000
  1 1 33       7.85897436  1.26839168E-08       5.85897436       0.20000000       0.50000000       0.30000000       0.10000000       1.00000000
  1 1 34       7.80769231  1.26839168E-08       5.80769231       0.20000000       0.50000000       0.30000000       0.10000000       1.00000000
  1 1 35       7.75641026  1.26839168E-08       5.75641026       0.20000000       0.50000000       0.30000000       0.10000000       1.00000000
  1 1 36       7.70512821  1.26839168E-08       5.70512821       0.20000000       0.50000000       0.30000000       0.10000000       1.00000000
  1 1 37       7.65384615  1.26839168E-08       5.65384615       0.20000000       0.50000000       0.30000000       0.10000000       1.00000000
  1 1 38       7.60256410  1.26839168E-08       5.60256410       0.20000000       0.50000000       0.30000000       0.10000000       1.00000000
  1 1 39       7.55128205  1.26839168E-08       5.55128205       0.20000000       0.50000000       0.30000000       0.10000000       1.00000000
  1 1 40       7.50000000  1.26839168E-08       5.50000000       0.20000000       0.50000000       0.30000000       0.10000000       1.00000000
  1 2 1       9.50000000  1.26839168E-08       7.50000000       0.20000000       0.50000000       0.30000000       0.10000000       1.00000000
  1 2 2       9.44871795  1.26839168E-08       7.44871795       0.20000000       0.50000000       0.30000000       0.10000000       1.00000000
  1 2 3       9.39743590  1.26839168E-08       7.39743590       0.20000000       0.50000000       0.30000000       0.10000000       1.00000000
  1 2 4       9.34615385  1.26839168E-08       7.34615385       0.20000000       0.50000000       0.30000000       0.10000000       1.00000000
  1 2 5       9.29487179  1.26839168E-08       7.29487179       0.20000000       0.50000000       0.30000000       0.10000000       1.00000000
  1 2 6       9.24358974  1.26839168E-08       7.24358974       0.20000000       0.50000000       0.30000000       0.10000000       1.00000000
  1 2 7       9.19230769  1.26839168E-08       7.19230769       0.20000000       0.50000000       0.30000000       0.10000000       1.00000000
  1 2 8       9.14102564  1.26839168E-08       7.14102564       0.20000000       0.50000000       0.30000000       0.10000000       1.00000000
  1 2 9       9.08974359  1.26839168E-08       7.08974359       0.20000000       0.50000000       0.30000000       0.10000000       1.00000000
  1 2 10       9.03846154  1.26839168E-08       7.03846154       0.20000000       0.50000000       0.30000000       0.10000000       1.00000000
  1 2 11       8.98717949  1.26839168E-08       6.98717949       0.20000000       0.50000000       0.30000000       0.10000000       1.00000000
  1 2 12       8.93589744  1.26839168E-08       6.93589744       0.20000000       0.50000000       0.30000000       0.10000000       1.00000000
  1 2 13       8.88461538  1.26839168E-08       6.88461538       0.20000000       0.50000000       0.30000000       0.10000000       1.00000000
  1 2 14       8.83333333  1.26839168E-08       6.83333333       0.20000000       0.50000000       0.30000000       0.10000000       1.00000000
  1 2 15       8.78205128  1.26839168E-08       6.78205128       0.20000000       0.50000000       0.30000000       0.10000000       1.00000000
  1 2 16       8.73076923  1.26839168E-08       6.73076923       0.20000000       0.50000000       0.30000000       0.10000000       1.00000000
  1 2 17       8.67948718  1.26839168E-08       6.67948718       0.20000000       0.50000000       0.30000000       0.10000000       1.00000000
  1 2 18       8.62820513  1.26839168E-08       6.62820513       0.20000000       0.50000000       0.30000000       0.10000000       1.00000000
  1 2 19       8.57692308  1.26839168E-08       6.57692308       0.20000000       0.50000000       0.30000000       0.10000000       1.00000000
  1 2 20       8.52564103  1.26839168E-08       6.52564103       0.20000000       0.50000000       0.30000000       0.10000000       1.00000000
  1 2 21       8.47435897  1.26839168E-08       6.47435897       0.20000000       0.50000000       0.30000000       0.10000000       1.00000000
  1 2 22       8.42307692  1.26839168E-08       6.42307692       0.20000000       0.50000000       0.30000000       0.10000000       1.00000000
  1 2 23       8.37179487  1.26839168E-08       6.37179487       0.20000000       0.50000000       0.30000000       0.10000000       1.00000000
  1 2 24       8.32051282  1.26839168E-08       6.32051282       0.20000000       0.50000000       0.30000000       0.10000000       1.00000000
  1 2 25       8.26923077  1.26839168E-08       6.26923077       0.20000000       0.50000000       0.30000000       0.10000000       1.00000000
  1 2 26       8.21794872  1.26839168E-08       6.21794872       0.20000000       0.50000000       0.30000000       0.10000000       1.00000000
  1 2 27       8.16666667  1.26839168E-08       6.16666667       0.20000000       0.50000000       0.30000000       0.10000000       1.00000000
  1 2 28       8.11538462  1.26839168E-08       6.11538462       0.20000000       0.50000000       0.30000000       0.10000000       1.00000000
  1 2 29       8.06410256  1.26839168E-08       6.06410256       0.20000000       0.50000000       0.30000000       0.10000000       1.00000000
  1 2 30       8.01282051  1.26839168E-08       6.01282051       0.20000000       0.50000000       0.30000000       0.10000000       1.00000000
  1 2 31       7.96153846  1.26839168E-08       5.96153846       0.20000000       0.50000000       0.30000000       0.10000000       1.00000000
  1 2 32       7.91025641  1.26839168E-08       5.91025641       0.20000000       0.50000000       0.30000000       0.10000000       1.00000000
  1 2 33       7.85897436  1.26839168E-08       5.85897436       0.20000000       0.50000000       0.30000000       0.10000000       1.00000000
  1 2 34       7.80769231  1.26839168E-08       5.80769231       0.20000000       0.50000000       0.30000000       0.10000000       1.00000000
  1 2 35       7.75641026  1.26839168E-08       5.75641026       0.20000000       0.50000000       0.30000000       0.10000000       1.00000000
  1 2 36       7.70512821  1.26839168E-08       5.70512821       0.20000000       0.50000000       0.30000000       0.10000000       1.00000000
  1 2 37       7.65384615  1.26839168E-08       5.65384615       0.20000000       0.50000000       0.30000000       0.10000000       1.00000000
  1 2 38       7.60256410  1.26839168E-08       5.60256410       0.20000000       0.50000000       0.30000000       0.10000000       1.00000000
  1 2 39       7.55128205  1.26839168E-08       5.55128205       0.20000000       0.50000000       0.30000000       0.10000000       1.00000000
  1 2 40       7.50000000  1.26839168E-08       5.50000000       0.20000000       0.50000000       0.30000000       0.10000000       1.00000000
  1 3 1       9.50000000  1.26839168E-08       7.50000000       0.20000000       0.50000000       0.30000000       0.10000000       1.00000000
  1 3 2       9.44871795  1.26839168E-08       7.44871795       0.20000000       0.50000000       0.30000000       0.10000000       1.00000000
  1 3 3       9.39743590  1.26839168E-08       7.39743590       0.20000000       0.50000000       0.30000000       0.10000000       1.00000000
  1 3 4       9.34615385  1.26839168E-08       7.34615385       0.20000000       0.50000000       0.30000000       0.10000000       1.00000000
  1 3 5       9.29487179  1.26839168E-08       7.29487179       0.20000000       0.50000000       0.30000000       0.10000000       1.00000000
  1 3 6       9.24358974  1.26839168E-08       7.24358974       0.20000000       0.50000000       0.30000000       0.10000000       1.00000000
  1 3 7       9.19230769  1.26839168E-08       7.19230769       0.20000000       0.50000000       0.30000000       0.10000000       1.00000000
  1 3 8       9.14102564  1.26839168E-08       7.14102564       0.20000000       0.50000000       0.30000000       0.10000000       1.00000000
  1 3 9       9.08974359  1.26839168E-08       7.08974359       0.20000000       0.50000000       0.30000000       0.10000000       1.00000000
  1 3 10       9.03846154  1.26839168E-08       7.03846154       0.20000000       0.50000000       0.30000000       0.10000000       1.00000000
  1 3 11       8.98717949  1.26839168E-08       6.98717949       0.20000000       0.50000000       0.30000000       0.10000000       1.00000000
  1 3 12       8.93589744  1.26839168E-08       6.93589744       0.20000000       0.50000000       0.30000000       0.10000000       1.00000000
  1 3 13       8.88461538  1.26839168E-08       6.88461538       0.20000000       0.50000000       0.30000000       0.10000000       1.00000000
  1 3 14       8.83333333  1.26839168E-08       6.83333333       0.20000000       0.50000000       0.30000000       0.10000000       1.00000000
  1 3 15       8.78205128  1.26839168E-08       6.78205128       0.20000000       0.50000000       0.30000000       0.10000000       1.00000000
  1 3 16       8.73076923  1.26839168E-08       6.73076923       0.20000000       0.50000000       0.30000000       0.10000000       1.00000000
  1 3 17       8.67948718  1.26839168E-08       6.67948718       0.20000000       0.50000000       0.30000000       0.10000000       1.00000000
  1 3 18       8.62820513  1.26839168E-08       6.62820513       0.20000000       0.50000000       0.30000000       0.10000000       1.00000000
  1 3 19       8.57692308  1.26839168E-08       6.57692308       0.20000000       0.50000000       0.30000000       0.10000000       1.00000000
  1 3 20       8.52564103  1.26839168E-08       6.52564103       0.20000000       0.50000000       0.30000000       0.10000000       1.00000000
  1 3 21       8.47435897  1.26839168E-08       6.47435897       0.20000000       0.50000000       0.30000000       0.10000000       1.00000000
  1 3 22       8.42307692  1.26839168E-08       6.42307692       0.20000000       0.50000000       0.30000000       0.10000000       1.00000000
  1 3 23       8.37179487  1.26839168E-08       6.37179487       0.20000000       0.50000000       0.30000000       0.10000000       1.00000000
  1 3 24       8.32051282  1.26839168E-08       6.32051282       0.20000000       0.50000000       0.30000000       0.10000000       1.00000000
  1 3 25       8.26923077  1.26839168E-08       6.26923077       0.20000000       0.50000000       0.30000000       0.10000000       1.00000000
  1 3 26       8.21794872  1.26839168E-08       6.21794872       0.20000000       0.50000000       0.30000000       0.10000000       1.00000000
  1 3 27       8.16666667  1.26839168E-08       6.16666667       0.20000000       0.50000000       0.30000000       0.10000000       1.00000000
  1 3 28       8.11538462  1.26839168E-08       6.11538462       0.20000000       0.50000000       0.30000000       0.10000000       1.00000000
  1 3 29       8.06410256  1.26839168E-08       6.06410256       0.20000000       0.50000000       0.30000000       0.10000000       1.00000000
  1 3 30       8.01282051  1.26839168E-08       6.01282051       0.20000000       0.50000000       0.30000000       0.10000000       1.00000000
  1 3 31       7.96153846  1.26839168E-08       5.96153846       0.20000000       0.50000000       0.30000000       0.10000000       1.00000000
  1 3 32       7.91025641  1.26839168E-08       5.91025641       0.20000000       0.50000000       0.30000000       0.10000000       1.00000000
  1 3 33       7.85897436  1.26839168E-08       5.85897436       0.20000000       0.50000000       0.30000000       0.10000000       1.00000000
  1 3 34       7.80769231  1.26839168E-08       5.80769231       0.20000000       0.50000000       0.30000000       0.10000000       1.00000000
  1 3 35       7.75641026  1.26839168E-08       5.75641026       0.20000000       0.50000000       0.30000000       0.10000000       1.00000000
  1 3 36       7.70512821  1.26839168E-08       5.70512821       0.20000000       0.50000000       0.30000000       0.10000000       1.00000000
  1 3 37       7.65384615  1.26839168E-08       5.65384615       0.20000000       0.50000000       0.30000000       0.10000000       1.00000000
  1 3 38       7.60256410  1.26839168E-08       5.60256410       0.20000000       0.50000000       0.30000000       0.10000000       1.00000000
  1 3 39       7.55128205  1.26839168E-08       5.55128205       0.20000000       0.50000000       0.30000000       0.10000000       1.00000000
  1 3 40       7.50000000  1.26839168E-08       5.50000000       0.20000000       0.50000000       0.30000000       0.10000000       1.00000000
  1 4 1       9.50000000  1.26839168E-08       7.50000000       0.20000000       0.50000000       0.30000000       0.10000000       1.00000000
  1 4 2       9.44871795  1.26839168E-08       7.44871795       0.20000000       0.50000000       0.30000000       0.10000000       1.00000000
  1 4 3       9.39743590  1.26839168E-08       7.39743590       0.20000000       0.50000000       0.30000000       0.10000000       1.00000000
  1 4 4       9.34615385  1.26839168E-08       7.34615385       0.20000000       0.50000000       0.30000000       0.10000000       1.00000000
  1 4 5       9.29487179  1.26839168E-08       7.29487179       0.20000000       0.50000000       0.30000000       0.10000000       1.00000000
  1 4 6       9.24358974  1.26839168E-08       7.24358974       0.20000000       0.50000000       0.30000000       0.10000000       1.00000000
  1 4 7       9.19230769  1.26839168E-08       7.19230769       0.20000000       0.50000000       0.30000000       0.10000000       1.00000000
  1 4 8       9.14102564  1.26839168E-08       7.14102564       0.20000000       0.50000000       0.30000000       0.10000000       1.00000000
  1 4 9       9.08974359  1.26839168E-08       7.08974359       0.20000000       0.50000000       0.30000000       0.10000000       1.00000000
  1 4 10       9.03846154  1.26839168E-08       7.03846154       0.20000000       0.50000000       0.30000000       0.10000000       1.00000000
  1 4 11       8.98717949  1.26839168E-08       6.98717949       0.20000000       0.50000000       0.30000000       0.10000000       1.00000000
  1 4 12       8.93589744  1.26839168E-08       6.93589744       0.20000000       0.50000000       0.30000000       0.10000000       1.00000000
  1 4 13       8.88461538  1.26839168E-08       6.88461538       0.20000000       0.50000000       0.30000000       0.10000000       1.00000000
  1 4 14       8.83333333  1.26839168E-08       6.83333333       0.20000000       0.50000000       0.30000000       0.10000000       1.00000000
  1 4 15       8.78205128  1.26839168E-08       6.78205128       0.20000000       0.50000000       0.30000000       0.10000000       1.00000000
  1 4 16       8.73076923  1.26839168E-08       6.73076923       0.20000000       0.50000000       0.30000000       0.10000000       1.00000000
  1 4 17       8.67948718  1.26839168E-08       6.67948718       0.20000000       0.50000000       0.30000000       0.10000000       1.00000000
  1 4 18       8.62820513  1.26839168E-08       6.62820513       0.20000000       0.50000000       0.30000000       0.10000000       1.00000000
  1 4 19       8.57692308  1.26839168E-08       6.57692308       0.20000000       0.50000000       0.30000000       0.10000000       1.00000000
  1 4 20       8.52564103  1.26839168E-08       6.52564103       0.20000000       0.50000000       0.30000000       0.10000000       1.00000000
  1 4 21       8.47435897  1.26839168E-08       6.47435897       0.20000000       0.50000000       0.30000000       0.10000000       1.00000000
  1 4 22       8.42307692  1.26839168E-08       6.42307692       0.20000000       0.50000000       0.30000000       0.10000000       1.00000000
  1 4 23       8.37179487  1.26839168E-08       6.37179487       0.20000000       0.50000000       0.30000000       0.10000000       1.00000000
  1 4 24       8.32051282  1.26839168E-08       6.32051282       0.20000000       0.50000000       0.30000000       0.10000000       1.00000000
  1 4 25       8.26923077  1.26839168E-08       6.26923077       0.20000000       0.50000000       0.30000000       0.10000000       1.00000000
  1 4 26       8.21794872  1.26839168E-08       6.21794872       0.20000000       0.50000000       0.30000000       0.10000000       1.00000000
  1 4 27       8.16666667  1.26839168E-08       6.16666667       0.20000000       0.50000000       0.30000000       0.10000000       1.00000000
  1 4 28       8.11538462  1.26839168E-08       6.11538462       0.20000000       0.50000000       0.30000000       0.10000000       1.00000000
  1 4 29       8.06410256  1.26839168E-08       6.06410256       0.20000000       0.50000000       0.30000000       0.10000000       1.00000000
  1 4 30       8.01282051  1.26839168E-08       6.01282051       0.20000000       0.50000000       0.30000000       0.10000000       1.00000000
  1 4 31       7.96153846  1.26839168E-08       5.96153846       0.20000000       0.50000000       0.30000000       0.10000000       1.00000000
  1 4 32       7.91025641  1.26839168E-08       5.91025641       0.20000000       0.50000000       0.30000000       0.10000000       1.00000000
  1 4 33       7.85897436  1.26839168E-08       5.85897436       0.20000000       0.50000000       0.30000000       0.10000000       1.00000000
  1 4 34       7.80769231  1.26839168E-08       5.80769231       0.20000000       0.50000000       0.30000000       0.10000000       1.00000000
  1 4 35       7.75641026  1.26839168E-08       5.75641026       0.20000000       0.50000000       0.30000000       0.10000000       1.00000000
  1 4 36       7.70512821  1.26839168E-08       5.70512821       0.20000000       0.50000000       0.30000000       0.10000000       1.00000000
  1 4 37       7.65384615  1.26839168E-08       5.65384615       0.20000000       0.50000000       0.30000000       0.10000000       1.00000000
  1 4 38       7.60256410  1.26839168E-08       5.60256410       0.20000000       0.50000000       0.30000000       0.10000000       1.00000000
  1 4 39       7.55128205  1.26839168E-08       5.55128205       0.20000000       0.50000000       0.30000000       0.10000000       1.00000000
  1 4 40       7.50000000  1.26839168E-08       5.50000000       0.20000000       0.50000000       0.30000000       0.10000000       1.00000000
  1 5 1       9.50000000  1.26839168E-08       7.50000000       0.20000000       0.50000000       0.30000000       0.10000000       1.00000000
  1 5 2       9.44871795  1.26839168E-08       7.44871795       0.20000000       0.50000000       0.30000000       0.10000000       1.00000000
  1 5 3       9.39743590  1.26839168E-08       7.39743590       0.20000000       0.50000000       0.30000000       0.10000000       1.00000000
  1 5 4       9.34615385  1.26839168E-08       7.34615385       0.20000000       0.50000000       0.30000000       0.10000000       1.00000000
  1 5 5       9.29487179  1.26839168E-08       7.29487179       0.20000000       0.50000000       0.30000000       0.10000000       1.00000000
  1 5 6       9.24358974  1.26839168E-08       7.24358974       0.20000000       0.50000000       0.30000000       0.10000000       1.00000000
  1 5 7       9.19230769  1.26839168E-08       7.19230769       0.20000000       0.50000000       0.30000000       0.10000000       1.00000000
  1 5 8       9.14102564  1.26839168E-08       7.14102564       0.20000000       0.50000000       0.30000000       0.10000000       1.00000000
  1 5 9       9.08974359  1.26839168E-08       7.08974359       0.20000000       0.50000000       0.30000000       0.10000000       1.00000000
  1 5 10       9.03846154  1.26839168E-08       7.03846154       0.20000000       0.50000000       0.30000000       0.10000000       1.00000000
  1 5 11       8.98717949  1.26839168E-08       6.98717949       0.20000000       0.50000000       0.30000000       0.10000000       1.00000000
  1 5 12       8.93589744  1.26839168E-08       6.93589744       0.20000000       0.50000000       0.30000000       0.10000000       1.00000000
  1 5 13       8.88461538  1.26839168E-08       6.88461538       0.20000000       0.50000000       0.30000000       0.10000000       1.00000000
  1 5 14       8.83333333  1.26839168E-08       6.83333333       0.20000000       0.50000000       0.30000000       0.10000000       1.00000000
  1 5 15       8.78205128  1.26839168E-08       6.78205128       0.20000000       0.50000000       0.30000000       0.10000000       1.00000000
  1 5 16       8.73076923  1.26839168E-08       6.73076923       0.20000000       0.50000000       0.30000000       0.10000000       1.00000000
  1 5 17       8.67948718  1.26839168E-08       6.67948718       0.20000000       0.50000000       0.30000000       0.10000000       1.00000000
  1 5 18       8.62820513  1.26839168E-08       6.62820513       0.20000000       0.50000000       0.30000000       0.10000000       1.00000000
  1 5 19       8.57692308  1.26839168E-08       6.57692308       0.20000000       0.50000000       0.30000000       0.10000000       1.00000000
  1 5 20       8.52564103  1.26839168E-08       6.52564103       0.20000000       0.50000000       0.30000000       0.10000000       1.00000000
  1 5 21       8.47435897  1.26839168E-08       6.47435897       0.20000000       0.50000000       0.30000000       0.10000000       1.00000000
  1 5 22       8.42307692  1.26839168E-08       6.42307692       0.20000000       0.50000000       0.30000000       0.10000000       1.00000000
  1 5 23       8.37179487  1.26839168E-08       6.37179487       0.20000000       0.50000000       0.30000000       0.10000000       1.00000000
  1 5 24       8.32051282  1.26839168E-08       6.32051282       0.20000000       0.50000000       0.30000000       0.10000000       1.00000000
  1 5 25       8.26923077  1.26839168E-08       6.26923077       0.20000000       0.50000000       0.30000000       0.10000000       1.00000000
  1 5 26       8.21794872  1.26839168E-08       6.21794872       0.20000000       0.50000000       0.30000000       0.10000000       1.00000000
  1 5 27       8.16666667  1.26839168E-08       6.16666667       0.20000000       0.50000000       0.30000000       0.10000000       1.00000000
  1 5 28       8.11538462  1.26839168E-08       6.11538462       0.20000000       0.50000000       0.30000000       0.10000000       1.00000000
  1 5 29       8.06410256  1.26839168E-08       6.06410256       0.20000000       0.50000000       0.30000000       0.10000000       1.00000000
  1 5 30       8.01282051  1.26839168E-08       6.01282051       0.20000000       0.50000000       0.30000000       0.10000000       1.00000000
  1 5 31       7.96153846  1.26839168E-08       5.96153846       0.20000000       0.50000000       0.30000000       0.10000000       1.00000000
  1 5 32       7.91025641  1.26839168E-08       5.91025641       0.20000000       0.50000000       0.30000000       0.10000000       1.00000000
  1 5 33       7.85897436  1.26839168E-08       5.85897436       0.20000000       0.50000000       0.30000000       0.10000000       1.00000000
  1 5 34       7.80769231  1.26839168E-08       5.80769231       0.20000000       0.50000000       0.30000000       0.10000000       1.00000000
  1 5 35       7.75641026  1.26839168E-08       5.75641026       0.20000000       0.50000000       0.30000000       0.10000000       1.00000000
  1 5 36       7.70512821  1.26839168E-08       5.70512821       0.20000000       0.50000000       0.30000000       0.10000000       1.00000000
  1 5 37       7.65384615  1.26839168E-08       5.65384615       0.20000000       0.50000000       0.30000000       0.10000000       1.00000000
  1 5 38       7.60256410  1.26839168E-08       5.60256410       0.20000000       0.50000000       0.30000000       0.10000000       1.00000000
  1 5 39       7.55128205  1.26839168E-08       5.55128205       0.20000000       0.50000000       0.30000000       0.10000000       1.00000000
  1 5 40       7.50000000  1.26839168E-08       5.50000000       0.20000000       0.50000000       0.30000000       0.10000000       1.00000000
  1 6 1       9.50000000  1.26839168E-08       7.50000000       0.20000000       0.50000000       0.30000000       0.10000000       1.00000000
  1 6 2       9.44871795  1.26839168E-08       7.44871795       0.20000000       0.50000000       0.30000000       0.10000000       1.00000000
  1 6 3       9.39743590  1.26839168E-08       7.39743590       0.20000000       0.50000000       0.30000000       0.10000000       1.00000000
  1 6 4       9.34615385  1.26839168E-08       7.34615385       0.20000000       0.50000000       0.30000000       0.10000000       1.00000000
  1 6 5       9.29487179  1.26839168E-08       7.29487179       0.20000000       0.50000000       0.30000000       0.10000000       1.00000000
  1 6 6       9.24358974  1.26839168E-08       7.24358974       0.20000000       0.50000000       0.30000000       0.10000000       1.00000000
  1 6 7       9.19230769  1.26839168E-08       7.19230769       0.20000000       0.50000000       0.30000000       0.10000000       1.00000000