BEGIN options
  READASARRAYS
  SAVE_FLOWS
END options

BEGIN period  1
  recharge
    INTERNAL  FACTOR  1.0
    2.53678336E-08  2.53678336E-08  2.53678336E-08  2.53678336E-08  2.53678336E-08  2.53678336E-08  2.53678336E-08  2.53678336E-08  2.53678336E-08  2.53678336E-08  2.53678336E-08  2.53678336E-08  2.53678336E-08  2.53678336E-08  2.53678336E-08  2.53678336E-08  2.53678336E-08  2.53678336E-08  2.53678336E-08  2.53678336E-08
    2.53678336E-08  2.53678336E-08  2.53678336E-08  2.53678336E-08  2.53678336E-08  2.53678336E-08  2.53678336E-08  2.53678336E-08  2.53678336E-08  2.53678336E-08  2.53678336E-08  2.53678336E-08  2.53678336E-08  2.53678336E-08  2.53678336E-08  2.53678336E-08  2.53678336E-08  2.53678336E-08  2.53678336E-08  2.53678336E-08
    2.53678336E-08  2.53678336E-08  2.53678336E-08  2.53678336E-08  2.53678336E-08  2.53678336E-08  2.53678336E-08  2.53678336E-08  2.53678336E-08  2.53678336E-08  2.53678336E-08  2.53678336E-08  2.53678336E-08  2.53678336E-08  2.53678336E-08  2.53678336E-08  2.53678336E-08  2.53678336E-08  2.53678336E-08  2.53678336E-08
    2.53678336E-08  2.53678336E-08  2.53678336E-08  2.53678336E-08  2.53678336E-08  2.53678336E-08  2.53678336E-08  2.53678336E-08  2.53678336E-08  2.53678336E-08  2.53678336E-08  2.53678336E-08  2.53678336E-08  2.53678336E-08  2.53678336E-08  2.53678336E-08  2.53678336E-08  2.53678336E-08  2.53678336E-08  2.53678336E-08
    2.53678336E-08  2.53678336E-08  2.53678336E-08  2.53678336E-08  2.53678336E-08  2.53678336E-08  2.53678336E-08  2.53678336E-08  2.53678336E-08  2.53678336E-08  2.53678336E-08  2.53678336E-08  2.53678336E-08  2.53678336E-08  2.53678336E-08  2.53678336E-08  2.53678336E-08  2.53678336E-08  2.53678336E-08  2.53678336E-08
    2.53678336E-08  2.53678336E-08  2.53678336E-08  2.53678336E-08  2.53678336E-08  2.53678336E-08  2.53678336E-08  2.53678336E-08  2.53678336E-08  2.53678336E-08  2.53678336E-08  2.53678336E-08  2.53678336E-08  2.53678336E-08  2.53678336E-08  2.53678336E-08  2.53678336E-08  2.53678336E-08  2.53678336E-08  2.53678336E-08
    2.53678336E-08  2.53678336E-08  2.53678336E-08  2.53678336E-08  2.53678336E-08  2.53678336E-08  2.53678336E-08  2.53678336E-08  2.53678336E-08  2.53678336E-08  2.53678336E-08  2.53678336E-08  2.53678336E-08  2.53678336E-08  2.53678336E-08  2.53678336E-08  2.53678336E-08  2.53678336E-08  2.53678336E-08  2.53678336E-08
    2.53678336E-08  2.53678336E-08  2.53678336E-08  2.53678336E-08  2.53678336E-08  2.53678336E-08  2.53678336E-08  2.53678336E-08  2.53678336E-08  2.53678336E-08  2.53678336E-08  2.53678336E-08  2.53678336E-08  2.53678336E-08  2.53678336E-08  2.53678336E-08  2.53678336E-08  2.53678336E-08  2.53678336E-08  2.53678336E-08
    2.53678336E-08  2.53678336E-08  2.53678336E-08  2.53678336E-08  2.53678336E-08  2.53678336E-08  2.53678336E-08  2.53678336E-08  2.53678336E-08  2.53678336E-08  2.53678336E-08  2.53678336E-08  2.53678336E-08  2.53678336E-08  2.53678336E-08  2.53678336E-08  2.53678336E-08  2.53678336E-08  2.53678336E-08  2.53678336E-08
    2.53678336E-08  2.53678336E-08  2.53678336E-08  2.53678336E-08  2.53678336E-08  2.53678336E-08  2.53678336E-08  2.53678336E-08  2.53678336E-08  2.53678336E-08  2.53678336E-08  2.53678336E-08  2.53678336E-08  2.53678336E-08  2.53678336E-08  2.53678336E-08  2.53678336E-08  2.53678336E-08  2.53678336E-08  2.53678336E-08
    2.53678336E-08  2.53678336E-08  2.53678336E-08  2.53678336E-08  2.53678336E-08  2.53678336E-08  2.53678336E-08  2.53678336E-08  2.53678336E-08  2.53678336E-08  2.53678336E-08  2.53678336E-08  2.53678336E-08  2.53678336E-08  2.53678336E-08  2.53678336E-08  2.53678336E-08  2.53678336E-08  2.53678336E-08  2.53678336E-08
    2.53678336E-08  2.53678336E-08  2.53678336E-08  2.53678336E-08  2.53678336E-08  2.53678336E-08  2.53678336E-08  2.53678336E-08  2.53678336E-08  2.53678336E-08  2.53678336E-08  2.53678336E-08  2.53678336E-08  2.53678336E-08  2.53678336E-08  2.53678336E-08  2.53678336E-08  2.53678336E-08  2.53678336E-08  2.53678336E-08
    2.53678336E-08  2.53678336E-08  2.53678336E-08  2.53678336E-08  2.53678336E-08  2.53678336E-08  2.53678336E-08  2.53678336E-08  2.53678336E-08  2.53678336E-08  2.53678336E-08  2.53678336E-08  2.53678336E-08  2.53678336E-08  2.53678336E-08  2.53678336E-08  2.53678336E-08  2.53678336E-08  2.53678336E-08  2.53678336E-08
    2.53678336E-08  2.53678336E-08  2.53678336E-08  2.53678336E-08  2.53678336E-08  2.53678336E-08  2.53678336E-08  2.53678336E-08  2.53678336E-08  2.53678336E-08  2.53678336E-08  2.53678336E-08  2.53678336E-08  2.53678336E-08  2.53678336E-08  2.53678336E-08  2.53678336E-08  2.53678336E-08  2.53678336E-08  2.53678336E-08
    2.53678336E-08  2.53678336E-08  2.53678336E-08  2.53678336E-08  2.53678336E-08  2.53678336E-08  2.53678336E-08  2.53678336E-08  2.53678336E-08  2.53678336E-08  2.53678336E-08  2.53678336E-08  2.53678336E-08  2.53678336E-08  2.53678336E-08  2.53678336E-08  2.53678336E-08  2.53678336E-08  2.53678336E-08  2.53678336E-08
    2.53678336E-08  2.53678336E-08  2.53678336E-08  2.53678336E-08  2.53678336E-08  2.53678336E-08  2.53678336E-08  2.53678336E-08  2.53678336E-08  2.53678336E-08  2.53678336E-08  2.53678336E-08  2.53678336E-08  2.53678336E-08  2.53678336E-08  2.53678336E-08  2.53678336E-08  2.53678336E-08  2.53678336E-08  2.53678336E-08
    2.53678336E-08  2.53678336E-08  2.53678336E-08  2.53678336E-08  2.53678336E-08  2.53678336E-08  2.53678336E-08  2.53678336E-08  2.53678336E-08  2.53678336E-08  2.53678336E-08  2.53678336E-08  2.53678336E-08  2.53678336E-08  2.53678336E-08  2.53678336E-08  2.53678336E-08  2.53678336E-08  2.53678336E-08  2.53678336E-08
    2.53678336E-08  2.53678336E-08  2.53678336E-08  2.53678336E-08  2.53678336E-08  2.53678336E-08  2.53678336E-08  2.53678336E-08  2.53678336E-08  2.53678336E-08  2.53678336E-08  2.53678336E-08  2.53678336E-08  2.53678336E-08  2.53678336E-08  2.53678336E-08  2.53678336E-08  2.53678336E-08  2.53678336E-08  2.53678336E-08
    2.53678336E-08  2.53678336E-08  2.53678336E-08  2.53678336E-08  2.53678336E-08  2.53678336E-08  2.53678336E-08  2.53678336E-08  2.53678336E-08  2.53678336E-08  2.53678336E-08  2.53678336E-08  2.53678336E-08  2.53678336E-08  2.53678336E-08  2.53678336E-08  2.53678336E-08  2.53678336E-08  2.53678336E-08  2.53678336E-08
    2.53678336E-08  2.53678336E-08  2.53678336E-08  2.53678336E-08  2.53678336E-08  2.53678336E-08  2.53678336E-08  2.53678336E-08  2.53678336E-08  2.53678336E-08  2.53678336E-08  2.53678336E-08  2.53678336E-08  2.53678336E-08  2.53678336E-08  2.53678336E-08  2.53678336E-08  2.53678336E-08  2.53678336E-08  2.53678336E-08
    2.53678336E-08  2.53678336E-08  2.53678336E-08  2.53678336E-08  2.53678336E-08  2.53678336E-08  2.53678336E-08  2.53678336E-08  2.53678336E-08  2.53678336E-08  2.53678336E-08  2.53678336E-08  2.53678336E-08  2.53678336E-08  2.53678336E-08  2.53678336E-08  2.53678336E-08  2.53678336E-08  2.53678336E-08  2.53678336E-08
    2.53678336E-08  2.53678336E-08  2.53678336E-08  2.53678336E-08  2.53678336E-08  2.53678336E-08  2.53678336E-08  2.53678336E-08  2.53678336E-08  2.53678336E-08  2.53678336E-08  2.53678336E-08  2.53678336E-08  2.53678336E-08  2.53678336E-08  2.53678336E-08  2.53678336E-08  2.53678336E-08  2.53678336E-08  2.53678336E-08
    2.53678336E-08  2.53678336E-08  2.53678336E-08  2.53678336E-08  2.53678336E-08  2.53678336E-08  2.53678336E-08  2.53678336E-08  2.53678336E-08  2.53678336E-08  2.53678336E-08  2.53678336E-08  2.53678336E-08  2.53678336E-08  2.53678336E-08  2.53678336E-08  2.53678336E-08  2.53678336E-08  2.53678336E-08  2.53678336E-08
    2.53678336E-08  2.53678336E-08  2.53678336E-08  2.53678336E-08  2.53678336E-08  2.53678336E-08  2.53678336E-08  2.53678336E-08  2.53678336E-08  2.53678336E-08  2.53678336E-08  2.53678336E-08  2.53678336E-08  2.53678336E-08  2.53678336E-08  2.53678336E-08  2.53678336E-08  2.53678336E-08  2.53678336E-08  2.53678336E-08
    2.53678336E-08  2.53678336E-08  2.53678336E-08  2.53678336E-08  2.53678336E-08  2.53678336E-08  2.53678336E-08  2.53678336E-08  2.53678336E-08  2.53678336E-08  2.53678336E-08  2.53678336E-08  2.53678336E-08  2.53678336E-08  2.53678336E-08  2.53678336E-08  2.53678336E-08  2.53678336E-08  2.53678336E-08  2.53678336E-08
    2.53678336E-08  2.53678336E-08  2.53678336E-08  2.53678336E-08  2.53678336E-08  2.53678336E-08  2.53678336E-08  2.53678336E-08  2.53678336E-08  2.53678336E-08  2.53678336E-08  2.53678336E-08  2.53678336E-08  2.53678336E-08  2.53678336E-08  2.53678336E-08  2.53678336E-08  2.53678336E-08  2.53678336E-08  2.53678336E-08
    2.53678336E-08  2.53678336E-08  2.53678336E-08  2.53678336E-08  2.53678336E-08  2.53678336E-08  2.53678336E-08  2.53678336E-08  2.53678336E-08  2.53678336E-08  2.53678336E-08  2.53678336E-08  2.53678336E-08  2.53678336E-08  2.53678336E-08  2.53678336E-08  2.53678336E-08  2.53678336E-08  2.53678336E-08  2.53678336E-08
    2.53678336E-08  2.53678336E-08  2.53678336E-08  2.53678336E-08  2.53678336E-08  2.53678336E-08  2.53678336E-08  2.53678336E-08  2.53678336E-08  2.53678336E-08  2.53678336E-08  2.53678336E-08  2.53678336E-08  2.53678336E-08  2.53678336E-08  2.53678336E-08  2.53678336E-08  2.53678336E-08  2.53678336E-08  2.53678336E-08
    2.53678336E-08  2.53678336E-08  2.53678336E-08  2.53678336E-08  2.53678336E-08  2.53678336E-08  2.53678336E-08  2.53678336E-08  2.53678336E-08  2.53678336E-08  2.53678336E-08  2.53678336E-08  2.53678336E-08  2.53678336E-08  2.53678336E-08  2.53678336E-08  2.53678336E-08  2.53678336E-08  2.53678336E-08  2.53678336E-08
    2.53678336E-08  2.53678336E-08  2.53678336E-08  2.53678336E-08  2.53678336E-08  2.53678336E-08  2.53678336E-08  2.53678336E-08  2.53678336E-08  2.53678336E-08  2.53678336E-08  2.53678336E-08  2.53678336E-08  2.53678336E-08  2.53678336E-08  2.53678336E-08  2.53678336E-08  2.53678336E-08  2.53678336E-08  2.53678336E-08
    1.58548960E-08  1.58548960E-08  1.58548960E-08  1.58548960E-08  1.58548960E-08  1.58548960E-08  1.58548960E-08  1.58548960E-08  1.58548960E-08  1.58548960E-08  1.58548960E-08  1.58548960E-08  1.58548960E-08  1.58548960E-08  1.58548960E-08  1.58548960E-08  1.58548960E-08  1.58548960E-08  1.58548960E-08  1.58548960E-08
    1.58548960E-08  1.58548960E-08  1.58548960E-08  1.58548960E-08  1.58548960E-08  1.58548960E-08  1.58548960E-08  1.58548960E-08  1.58548960E-08  1.58548960E-08  1.58548960E-08  1.58548960E-08  1.58548960E-08  1.58548960E-08  1.58548960E-08  1.58548960E-08  1.58548960E-08  1.58548960E-08  1.58548960E-08  1.58548960E-08
    1.58548960E-08  1.58548960E-08  1.58548960E-08  1.58548960E-08  1.58548960E-08  1.58548960E-08  1.58548960E-08  1.58548960E-08  1.58548960E-08  1.58548960E-08  1.58548960E-08  1.58548960E-08  1.58548960E-08  1.58548960E-08  1.58548960E-08  1.58548960E-08  1.58548960E-08  1.58548960E-08  1.58548960E-08  1.58548960E-08
    1.58548960E-08  1.58548960E-08  1.58548960E-08  1.58548960E-08  1.58548960E-08  1.58548960E-08  1.58548960E-08  1.58548960E-08  1.58548960E-08  1.58548960E-08  1.58548960E-08  1.58548960E-08  1.58548960E-08  1.58548960E-08  1.58548960E-08  1.58548960E-08  1.58548960E-08  1.58548960E-08  1.58548960E-08  1.58548960E-08
    1.58548960E-08  1.58548960E-08  1.58548960E-08  1.58548960E-08  1.58548960E-08  1.58548960E-08  1.58548960E-08  1.58548960E-08  1.58548960E-08  1.58548960E-08  1.58548960E-08  1.58548960E-08  1.58548960E-08  1.58548960E-08  1.58548960E-08  1.58548960E-08  1.58548960E-08  1.58548960E-08  1.58548960E-08  1.58548960E-08
    1.58548960E-08  1.58548960E-08  1.58548960E-08  1.58548960E-08  1.58548960E-08  1.58548960E-08  1.58548960E-08  1.58548960E-08  1.58548960E-08  1.58548960E-08  1.58548960E-08  1.58548960E-08  1.58548960E-08  1.58548960E-08  1.58548960E-08  1.58548960E-08  1.58548960E-08  1.58548960E-08  1.58548960E-08  1.58548960E-08
    1.58548960E-08  1.58548960E-08  1.58548960E-08  1.58548960E-08  1.58548960E-08  1.58548960E-08  1.58548960E-08  1.58548960E-08  1.58548960E-08  1.58548960E-08  1.58548960E-08  1.58548960E-08  1.58548960E-08  1.58548960E-08  1.58548960E-08  1.58548960E-08  1.58548960E-08  1.58548960E-08  1.58548960E-08  1.58548960E-08
    1.58548960E-08  1.58548960E-08  1.58548960E-08  1.58548960E-08  1.58548960E-08  1.58548960E-08  1.58548960E-08  1.58548960E-08  1.58548960E-08  1.58548960E-08  1.58548960E-08  1.58548960E-08  1.58548960E-08  1.58548960E-08  1.58548960E-08  1.58548960E-08  1.58548960E-08  1.58548960E-08  1.58548960E-08  1.58548960E-08
    1.58548960E-08  1.58548960E-08  1.58548960E-08  1.58548960E-08  1.58548960E-08  1.58548960E-08  1.58548960E-08  1.58548960E-08  1.58548960E-08  1.58548960E-08  1.58548960E-08  1.58548960E-08  1.58548960E-08  1.58548960E-08  1.58548960E-08  1.58548960E-08  1.58548960E-08  1.58548960E-08  1.58548960E-08  1.58548960E-08
    1.58548960E-08  1.58548960E-08  1.58548960E-08  1.58548960E-08  1.58548960E-08  1.58548960E-08  1.58548960E-08  1.58548960E-08  1.58548960E-08  1.58548960E-08  1.58548960E-08  1.58548960E-08  1.58548960E-08  1.58548960E-08  1.58548960E-08  1.58548960E-08  1.58548960E-08  1.58548960E-08  1.58548960E-08  1.58548960E-08
    1.58548960E-08  1.58548960E-08  1.58548960E-08  1.58548960E-08  1.58548960E-08  1.58548960E-08  1.58548960E-08  1.58548960E-08  1.58548960E-08  1.58548960E-08  1.58548960E-08  1.58548960E-08  1.58548960E-08  1.58548960E-08  1.58548960E-08  1.58548960E-08  1.58548960E-08  1.58548960E-08  1.58548960E-08  1.58548960E-08
    1.58548960E-08  1.58548960E-08  1.58548960E-08  1.58548960E-08  1.58548960E-08  1.58548960E-08  1.58548960E-08  1.58548960E-08  1.58548960E-08  1.58548960E-08  1.58548960E-08  1.58548960E-08  1.58548960E-08  1.58548960E-08  1.58548960E-08  1.58548960E-08  1.58548960E-08  1.58548960E-08  1.58548960E-08  1.58548960E-08
    1.58548960E-08  1.58548960E-08  1.58548960E-08  1.58548960E-08  1.58548960E-08  1.58548960E-08  1.58548960E-08  1.58548960E-08  1.58548960E-08  1.58548960E-08  1.58548960E-08  1.58548960E-08  1.58548960E-08  1.58548960E-08  1.58548960E-08  1.58548960E-08  1.58548960E-08  1.58548960E-08  1.58548960E-08  1.58548960E-08
    1.58548960E-08  1.58548960E-08  1.58548960E-08  1.58548960E-08  1.58548960E-08  1.58548960E-08  1.58548960E-08  1.58548960E-08  1.58548960E-08  1.58548960E-08  1.58548960E-08  1.58548960E-08  1.58548960E-08  1.58548960E-08  1.58548960E-08  1.58548960E-08  1.58548960E-08  1.58548960E-08  1.58548960E-08  1.58548960E-08
    1.58548960E-08  1.58548960E-08  1.58548960E-08  1.58548960E-08  1.58548960E-08  1.58548960E-08  1.58548960E-08  1.58548960E-08  1.58548960E-08  1.58548960E-08  1.58548960E-08  1.58548960E-08  1.58548960E-08  1.58548960E-08  1.58548960E-08  1.58548960E-08  1.58548960E-08  1.58548960E-08  1.58548960E-08  1.58548960E-08
    1.58548960E-08  1.58548960E-08  1.58548960E-08  1.58548960E-08  1.58548960E-08  1.58548960E-08  1.58548960E-08  1.58548960E-08  1.58548960E-08  1.58548960E-08  1.58548960E-08  1.58548960E-08  1.58548960E-08  1.58548960E-08  1.58548960E-08  1.58548960E-08  1.58548960E-08  1.58548960E-08  1.58548960E-08  1.58548960E-08
    1.58548960E-08  1.58548960E-08  1.58548960E-08  1.58548960E-08  1.58548960E-08  1.58548960E-08  1.58548960E-08  1.58548960E-08  1.58548960E-08  1.58548960E-08  1.58548960E-08  1.58548960E-08  1.58548960E-08  1.58548960E-08  1.58548960E-08  1.58548960E-08  1.58548960E-08  1.58548960E-08  1.58548960E-08  1.58548960E-08
    1.58548960E-08  1.58548960E-08  1.58548960E-08  1.58548960E-08  1.58548960E-08  1.58548960E-08  1.58548960E-08  1.58548960E-08  1.58548960E-08  1.58548960E-08  1.58548960E-08  1.58548960E-08  1.58548960E-08  1.58548960E-08  1.58548960E-08  1.58548960E-08  1.58548960E-08  1.58548960E-08  1.58548960E-08  1.58548960E-08
    1.58548960E-08  1.58548960E-08  1.58548960E-08  1.58548960E-08  1.58548960E-08  1.58548960E-08  1.58548960E-08  1.58548960E-08  1.58548960E-08  1.58548960E-08  1.58548960E-08  1.58548960E-08  1.58548960E-08  1.58548960E-08  1.58548960E-08  1.58548960E-08  1.58548960E-08  1.58548960E-08  1.58548960E-08  1.58548960E-08
    1.58548960E-08  1.58548960E-08  1.58548960E-08  1.58548960E-08  1.58548960E-08  1.58548960E-08  1.58548960E-08  1.58548960E-08  1.58548960E-08  1.58548960E-08  1.58548960E-08  1.58548960E-08  1.58548960E-08  1.58548960E-08  1.58548960E-08  1.58548960E-08  1.58548960E-08  1.58548960E-08  1.58548960E-08  1.58548960E-08
    2.53678336E-08  2.53678336E-08  2.53678336E-08  2.53678336E-08  2.53678336E-08  2.53678336E-08  2.53678336E-08  2.53678336E-08  2.53678336E-08  2.53678336E-08  2.53678336E-08  2.53678336E-08  2.53678336E-08  2.53678336E-08  2.53678336E-08  2.53678336E-08  2.53678336E-08  2.53678336E-08  2.53678336E-08  2.53678336E-08
    2.53678336E-08  2.53678336E-08  2.53678336E-08  2.53678336E-08  2.53678336E-08  2.53678336E-08  2.53678336E-08  2.53678336E-08  2.53678336E-08  2.53678336E-08  2.53678336E-08  2.53678336E-08  2.53678336E-08  2.53678336E-08  2.53678336E-08  2.53678336E-08  2.53678336E-08  2.53678336E-08  2.53678336E-08  2.53678336E-08
    2.53678336E-08  2.53678336E-08  2.53678336E-08  2.53678336E-08  2.53678336E-08  2.53678336E-08  2.53678336E-08  2.53678336E-08  2.53678336E-08  2.53678336E-08  2.53678336E-08  2.53678336E-08  2.53678336E-08  2.53678336E-08  2.53678336E-08  2.53678336E-08  2.53678336E-08  2.53678336E-08  2.53678336E-08  2.53678336E-08
    2.53678336E-08  2.53678336E-08  2.53678336E-08  2.53678336E-08  2.53678336E-08  2.53678336E-08  2.53678336E-08  2.53678336E-08  2.53678336E-08  2.53678336E-08  2.53678336E-08  2.53678336E-08  2.53678336E-08  2.53678336E-08  2.53678336E-08  2.53678336E-08  2.53678336E-08  2.53678336E-08  2.53678336E-08  2.53678336E-08
    2.53678336E-08  2.53678336E-08  2.53678336E-08  2.53678336E-08  2.53678336E-08  2.53678336E-08  2.53678336E-08  2.53678336E-08  2.53678336E-08  2.53678336E-08  2.53678336E-08  2.53678336E-08  2.53678336E-08  2.53678336E-08  2.53678336E-08  2.53678336E-08  2.53678336E-08  2.53678336E-08  2.53678336E-08  2.53678336E-08
    2.53678336E-08  2.53678336E-08  2.53678336E-08  2.53678336E-08  2.53678336E-08  2.53678336E-08  2.53678336E-08  2.53678336E-08  2.53678336E-08  2.53678336E-08  2.53678336E-08  2.53678336E-08  2.53678336E-08  2.53678336E-08  2.53678336E-08  2.53678336E-08  2.53678336E-08  2.53678336E-08  2.53678336E-08  2.53678336E-08
    2.53678336E-08  2.53678336E-08  2.53678336E-08  2.53678336E-08  2.53678336E-08  2.53678336E-08  2.53678336E-08  2.53678336E-08  2.53678336E-08  2.53678336E-08  2.53678336E-08  2.53678336E-08  2.53678336E-08  2.53678336E-08  2.53678336E-08  2.53678336E-08  2.53678336E-08  2.53678336E-08  2.53678336E-08  2.53678336E-08
    2.53678336E-08  2.53678336E-08  2.53678336E-08  2.53678336E-08  2.53678336E-08  2.53678336E-08  2.53678336E-08  2.53678336E-08  2.53678336E-08  2.53678336E-08  2.53678336E-08  2.53678336E-08  2.53678336E-08  2.53678336E-08  2.53678336E-08  2.53678336E-08  2.53678336E-08  2.53678336E-08  2.53678336E-08  2.53678336E-08
    2.53678336E-08  2.53678336E-08  2.53678336E-08  2.53678336E-08  2.53678336E-08  2.53678336E-08  2.53678336E-08  2.53678336E-08  2.53678336E-08  2.53678336E-08  2.53678336E-08  2.53678336E-08  2.53678336E-08  2.53678336E-08  2.53678336E-08  2.53678336E-08  2.53678336E-08  2.53678336E-08  2.53678336E-08  2.53678336E-08
    2.53678336E-08  2.53678336E-08  2.53678336E-08  2.53678336E-08  2.53678336E-08  2.53678336E-08  2.53678336E-08  2.53678336E-08  2.53678336E-08  2.53678336E-08  2.53678336E-08  2.53678336E-08  2.53678336E-08  2.53678336E-08  2.53678336E-08  2.53678336E-08  2.53678336E-08  2.53678336E-08  2.53678336E-08  2.53678336E-08
END period  1

