# File generated by Flopy version 3.3.2 on 01/09/2021 at 16:13:16.
BEGIN options
  SAVE_FLOWS
END options

BEGIN dimensions
  MAXBOUND  51
END dimensions

BEGIN period  1
  1 21 26       6.00000000       0.00100000
  1 21 27       6.00000000       0.00100000
  1 21 28       6.00000000       0.00100000
  1 21 29       6.00000000       0.00100000
  1 21 30       6.00000000       0.00100000
  1 21 31       6.00000000       0.00100000
  1 21 32       6.00000000       0.00100000
  1 21 33       6.00000000       0.00100000
  1 21 34       6.00000000       0.00100000
  1 21 35       6.00000000       0.00100000
  1 22 26       6.00000000       0.00100000
  1 22 27       6.00000000       0.00100000
  1 22 28       6.00000000       0.00100000
  1 22 29       6.00000000       0.00100000
  1 22 30       6.00000000       0.00100000
  1 22 31       6.00000000       0.00100000
  1 22 32       6.00000000       0.00100000
  1 22 33       6.00000000       0.00100000
  1 22 34       6.00000000       0.00100000
  1 22 35       6.00000000       0.00100000
  1 23 26       6.00000000       0.00100000
  1 23 27       6.00000000       0.00100000
  1 23 28       6.00000000       0.00100000
  1 23 29       6.00000000       0.00100000
  1 23 30       6.00000000       0.00100000
  1 23 31       6.00000000       0.00100000
  1 23 32       6.00000000       0.00100000
  1 23 33       6.00000000       0.00100000
  1 23 34       6.00000000       0.00100000
  1 23 35       6.00000000       0.00100000
  1 24 26       6.00000000       0.00100000
  1 24 27       6.00000000       0.00100000
  1 24 28       6.00000000       0.00100000
  1 24 29       6.00000000       0.00100000
  1 24 30       6.00000000       0.00100000
  1 24 31       6.00000000       0.00100000
  1 24 32       6.00000000       0.00100000
  1 24 33       6.00000000       0.00100000
  1 24 34       6.00000000       0.00100000
  1 24 35       6.00000000       0.00100000
  1 25 26       6.00000000       0.00100000
  1 25 27       6.00000000       0.00100000
  1 25 28       6.00000000       0.00100000
  1 25 29       6.00000000       0.00100000
  1 25 30       6.00000000       0.00100000
  1 25 31       6.00000000       0.00100000
  1 25 32       6.00000000       0.00100000
  1 25 33       6.00000000       0.00100000
  1 25 34       6.00000000       0.00100000
  1 25 35       6.00000000       0.00100000
  1 25 35       6.00000000       0.00100000
END period  1

