BEGIN options
  BUDGET  FILEOUT  Basique.cbc
  HEAD  FILEOUT  Basique.hds
END options

BEGIN period  1
  SAVE  HEAD  LAST
  SAVE  BUDGET  LAST
  PRINT  BUDGET  ALL
END period  1

