BEGIN options
  TIME_UNITS  seconds
END options

BEGIN dimensions
  NPER  2
END dimensions

BEGIN perioddata
       1.00000000  1       1.00000000
       1.00000000  1       1.00000000
END perioddata

