BEGIN options
  DIGITS  10
  PRINT_INPUT
END options

BEGIN continuous  FILEOUT  heads.csv
  0_1_1  HEAD  1 2 2
  0_1_8  HEAD  1 2 9
  0_1_15  HEAD  1 2 16
  0_1_22  HEAD  1 2 23
  0_1_29  HEAD  1 2 30
  0_1_36  HEAD  1 2 37
  0_1_43  HEAD  1 2 44
  0_1_50  HEAD  1 2 51
  0_1_57  HEAD  1 2 58
  0_1_64  HEAD  1 2 65
  0_1_71  HEAD  1 2 72
  0_1_78  HEAD  1 2 79
  0_1_85  HEAD  1 2 86
  0_1_92  HEAD  1 2 93
  0_8_1  HEAD  1 9 2
  0_8_8  HEAD  1 9 9
  0_8_15  HEAD  1 9 16
  0_8_22  HEAD  1 9 23
  0_8_29  HEAD  1 9 30
  0_8_36  HEAD  1 9 37
  0_8_43  HEAD  1 9 44
  0_8_50  HEAD  1 9 51
  0_8_57  HEAD  1 9 58
  0_8_64  HEAD  1 9 65
  0_8_71  HEAD  1 9 72
  0_8_78  HEAD  1 9 79
  0_8_85  HEAD  1 9 86
  0_8_92  HEAD  1 9 93
  0_15_1  HEAD  1 16 2
  0_15_8  HEAD  1 16 9
  0_15_15  HEAD  1 16 16
  0_15_22  HEAD  1 16 23
  0_15_29  HEAD  1 16 30
  0_15_36  HEAD  1 16 37
  0_15_43  HEAD  1 16 44
  0_15_50  HEAD  1 16 51
  0_15_57  HEAD  1 16 58
  0_15_64  HEAD  1 16 65
  0_15_71  HEAD  1 16 72
  0_15_78  HEAD  1 16 79
  0_15_85  HEAD  1 16 86
  0_15_92  HEAD  1 16 93
  0_22_1  HEAD  1 23 2
  0_22_8  HEAD  1 23 9
  0_22_15  HEAD  1 23 16
  0_22_22  HEAD  1 23 23
  0_22_29  HEAD  1 23 30
  0_22_36  HEAD  1 23 37
  0_22_43  HEAD  1 23 44
  0_22_50  HEAD  1 23 51
  0_22_57  HEAD  1 23 58
  0_22_64  HEAD  1 23 65
  0_22_71  HEAD  1 23 72
  0_22_78  HEAD  1 23 79
  0_22_85  HEAD  1 23 86
  0_22_92  HEAD  1 23 93
  0_29_1  HEAD  1 30 2
  0_29_8  HEAD  1 30 9
  0_29_15  HEAD  1 30 16
  0_29_22  HEAD  1 30 23
  0_29_29  HEAD  1 30 30
  0_29_36  HEAD  1 30 37
  0_29_43  HEAD  1 30 44
  0_29_50  HEAD  1 30 51
  0_29_57  HEAD  1 30 58
  0_29_64  HEAD  1 30 65
  0_29_71  HEAD  1 30 72
  0_29_78  HEAD  1 30 79
  0_29_85  HEAD  1 30 86
  0_29_92  HEAD  1 30 93
  0_36_1  HEAD  1 37 2
  0_36_8  HEAD  1 37 9
  0_36_15  HEAD  1 37 16
  0_36_22  HEAD  1 37 23
  0_36_29  HEAD  1 37 30
  0_36_36  HEAD  1 37 37
  0_36_43  HEAD  1 37 44
  0_36_50  HEAD  1 37 51
  0_36_57  HEAD  1 37 58
  0_36_64  HEAD  1 37 65
  0_36_71  HEAD  1 37 72
  0_36_78  HEAD  1 37 79
  0_36_85  HEAD  1 37 86
  0_36_92  HEAD  1 37 93
  0_43_1  HEAD  1 44 2
  0_43_8  HEAD  1 44 9
  0_43_15  HEAD  1 44 16
  0_43_22  HEAD  1 44 23
  0_43_29  HEAD  1 44 30
  0_43_36  HEAD  1 44 37
  0_43_43  HEAD  1 44 44
  0_43_50  HEAD  1 44 51
  0_43_57  HEAD  1 44 58
  0_43_64  HEAD  1 44 65
  0_43_71  HEAD  1 44 72
  0_43_78  HEAD  1 44 79
  0_43_85  HEAD  1 44 86
  0_43_92  HEAD  1 44 93
  0_50_1  HEAD  1 51 2
  0_50_8  HEAD  1 51 9
  0_50_15  HEAD  1 51 16
  0_50_22  HEAD  1 51 23
  0_50_29  HEAD  1 51 30
  0_50_36  HEAD  1 51 37
  0_50_43  HEAD  1 51 44
  0_50_50  HEAD  1 51 51
  0_50_57  HEAD  1 51 58
  0_50_64  HEAD  1 51 65
  0_50_71  HEAD  1 51 72
  0_50_78  HEAD  1 51 79
  0_50_85  HEAD  1 51 86
  0_50_92  HEAD  1 51 93
  0_57_1  HEAD  1 58 2
  0_57_8  HEAD  1 58 9
  0_57_15  HEAD  1 58 16
  0_57_22  HEAD  1 58 23
  0_57_29  HEAD  1 58 30
  0_57_36  HEAD  1 58 37
  0_57_43  HEAD  1 58 44
  0_57_50  HEAD  1 58 51
  0_57_57  HEAD  1 58 58
  0_57_64  HEAD  1 58 65
  0_57_71  HEAD  1 58 72
  0_57_78  HEAD  1 58 79
  0_57_85  HEAD  1 58 86
  0_57_92  HEAD  1 58 93
  0_64_1  HEAD  1 65 2
  0_64_8  HEAD  1 65 9
  0_64_15  HEAD  1 65 16
  0_64_22  HEAD  1 65 23
  0_64_29  HEAD  1 65 30
  0_64_36  HEAD  1 65 37
  0_64_43  HEAD  1 65 44
  0_64_50  HEAD  1 65 51
  0_64_57  HEAD  1 65 58
  0_64_64  HEAD  1 65 65
  0_64_71  HEAD  1 65 72
  0_64_78  HEAD  1 65 79
  0_64_85  HEAD  1 65 86
  0_64_92  HEAD  1 65 93
  0_71_1  HEAD  1 72 2
  0_71_8  HEAD  1 72 9
  0_71_15  HEAD  1 72 16
  0_71_22  HEAD  1 72 23
  0_71_29  HEAD  1 72 30
  0_71_36  HEAD  1 72 37
  0_71_43  HEAD  1 72 44
  0_71_50  HEAD  1 72 51
  0_71_57  HEAD  1 72 58
  0_71_64  HEAD  1 72 65
  0_71_71  HEAD  1 72 72
  0_71_78  HEAD  1 72 79
  0_71_85  HEAD  1 72 86
  0_71_92  HEAD  1 72 93
  0_78_1  HEAD  1 79 2
  0_78_8  HEAD  1 79 9
  0_78_15  HEAD  1 79 16
  0_78_22  HEAD  1 79 23
  0_78_29  HEAD  1 79 30
  0_78_36  HEAD  1 79 37
  0_78_43  HEAD  1 79 44
  0_78_50  HEAD  1 79 51
  0_78_57  HEAD  1 79 58
  0_78_64  HEAD  1 79 65
  0_78_71  HEAD  1 79 72
  0_78_78  HEAD  1 79 79
  0_78_85  HEAD  1 79 86
  0_78_92  HEAD  1 79 93
  0_85_1  HEAD  1 86 2
  0_85_8  HEAD  1 86 9
  0_85_15  HEAD  1 86 16
  0_85_22  HEAD  1 86 23
  0_85_29  HEAD  1 86 30
  0_85_36  HEAD  1 86 37
  0_85_43  HEAD  1 86 44
  0_85_50  HEAD  1 86 51
  0_85_57  HEAD  1 86 58
  0_85_64  HEAD  1 86 65
  0_85_71  HEAD  1 86 72
  0_85_78  HEAD  1 86 79
  0_85_85  HEAD  1 86 86
  0_85_92  HEAD  1 86 93
  0_92_1  HEAD  1 93 2
  0_92_8  HEAD  1 93 9
  0_92_15  HEAD  1 93 16
  0_92_22  HEAD  1 93 23
  0_92_29  HEAD  1 93 30
  0_92_36  HEAD  1 93 37
  0_92_43  HEAD  1 93 44
  0_92_50  HEAD  1 93 51
  0_92_57  HEAD  1 93 58
  0_92_64  HEAD  1 93 65
  0_92_71  HEAD  1 93 72
  0_92_78  HEAD  1 93 79
  0_92_85  HEAD  1 93 86
  0_92_92  HEAD  1 93 93
END continuous  FILEOUT  heads.csv

