# Name file for MODPATH 7, generated by Flopy version 3.3.2.
MPBAS      mp_sim_mp.mpbas
GRBDIS     mp_sim.dis.grb
TDIS       mp_sim.tdis
HEAD       mp_sim.hds
BUDGET     mp_sim.cbc
