BEGIN options
END options

BEGIN dimensions
  MAXBOUND  30
END dimensions

BEGIN period  1
  1 1 30       5.00000000
  1 2 30       5.00000000
  1 3 30       5.00000000
  1 4 30       5.00000000
  1 5 30       5.00000000
  1 6 30       5.00000000
  1 7 30       5.00000000
  1 8 30       5.00000000
  1 9 30       5.00000000
  1 10 30       5.00000000
  1 11 30       5.00000000
  1 12 30       5.00000000
  1 13 30       5.00000000
  1 14 30       5.00000000
  1 15 30       5.00000000
  1 16 30       5.00000000
  1 17 30       5.00000000
  1 18 30       5.00000000
  1 19 30       5.00000000
  1 20 30       5.00000000
  1 21 30       5.00000000
  1 22 30       5.00000000
  1 23 30       5.00000000
  1 24 30       5.00000000
  1 25 30       5.00000000
  1 26 30       5.00000000
  1 27 30       5.00000000
  1 28 30       5.00000000
  1 29 30       5.00000000
  1 30 30       5.00000000
END period  1

