# File generated by Flopy version 3.3.2 on 01/06/2021 at 11:32:11.
BEGIN options
  SAVE_FLOWS
END options

BEGIN dimensions
  MAXBOUND  1
END dimensions

BEGIN period  1
  3 16 16      -0.00150000
END period  1

