# File generated by Flopy version 3.3.2 on 01/09/2021 at 16:51:42.
BEGIN options
  BUDGET  FILEOUT  mp_sim.cbc
  HEAD  FILEOUT  mp_sim.hds
END options

BEGIN period  1
  SAVE  HEAD  ALL
  SAVE  BUDGET  ALL
END period  1

