BEGIN options
  COMPLEXITY  simple
END options

