# File generated by Flopy version 3.3.2 on 01/06/2021 at 11:32:11.
BEGIN griddata
  strt
    CONSTANT      10.00000000
END griddata

