# File generated by Flopy version 3.3.2 on 01/06/2021 at 11:32:11.
BEGIN options
  BUDGET  FILEOUT  mp_sim.cbc
  HEAD  FILEOUT  mp_sim.hds
END options

BEGIN period  1
  SAVE  HEAD  ALL
  SAVE  BUDGET  ALL
END period  1

