BEGIN options
END options

BEGIN griddata
  icelltype  LAYERED
    CONSTANT  1
    CONSTANT  0
    CONSTANT  0
  k  LAYERED
    CONSTANT       0.00100000
    CONSTANT  1.00000000E-05
    CONSTANT  1.00000000E-04
  k33  LAYERED
    CONSTANT  3.33333333E-04
    CONSTANT  3.33333333E-06
    CONSTANT  3.33333333E-05
END griddata

