# File generated by Flopy version 3.3.2 on 01/06/2021 at 11:32:11.
BEGIN options
  TIME_UNITS  days
END options

BEGIN dimensions
  NPER  1
END dimensions

BEGIN perioddata
       1.00000000  1       1.00000000
END perioddata

