# File generated by Flopy version 3.3.2 on 01/09/2021 at 16:51:42.
BEGIN options
  READASARRAYS
  SAVE_FLOWS
END options

BEGIN period  1
  recharge
    CONSTANT  2.21968544E-08
END period  1

