# File generated by Flopy version 3.3.2 on 01/06/2021 at 11:32:11.
BEGIN options
  READASARRAYS
  SAVE_FLOWS
END options

BEGIN period  1
  recharge
    CONSTANT  2.21968544E-08
END period  1

