# File generated by Flopy version 3.3.2 on 01/06/2021 at 11:32:11.
BEGIN options
END options

BEGIN griddata
  icelltype  LAYERED
    CONSTANT  1
    CONSTANT  0
    CONSTANT  0
  k  LAYERED
    CONSTANT  1.00000000E-04
    CONSTANT  1.00000000E-05
    CONSTANT  1.00000000E-04
  k33  LAYERED
    CONSTANT  3.33333333E-05
    CONSTANT  3.33333333E-06
    CONSTANT  3.33333333E-05
END griddata

