MODPATH_TIMESERIES_FILE         7         2
    2   0.0000000000E+00  0.0000000000E+00  0.0000000000E+00  0.0000000000E+00
END HEADER
       0       1  0.0000000000E+00         1    1         1      2266  0.1250000000E+00  0.1250000000E+00  0.1250000000E+00  0.5041666662E+02  0.4708333329E+02  0.5000000000E+00         3
       0       1  0.0000000000E+00         2    1         2      2266  0.3750000000E+00  0.1250000000E+00  0.1250000000E+00  0.5124999995E+02  0.4708333329E+02  0.5000000000E+00         3
       0       1  0.0000000000E+00         3    1         3      2266  0.6250000000E+00  0.1250000000E+00  0.1250000000E+00  0.5208333328E+02  0.4708333329E+02  0.5000000000E+00         3
       0       1  0.0000000000E+00         4    1         4      2266  0.8750000000E+00  0.1250000000E+00  0.1250000000E+00  0.5291666661E+02  0.4708333329E+02  0.5000000000E+00         3
       0       1  0.0000000000E+00         5    1         5      2266  0.1250000000E+00  0.3750000000E+00  0.1250000000E+00  0.5041666662E+02  0.4791666662E+02  0.5000000000E+00         3
       0       1  0.0000000000E+00         6    1         6      2266  0.3750000000E+00  0.3750000000E+00  0.1250000000E+00  0.5124999995E+02  0.4791666662E+02  0.5000000000E+00         3
       0       1  0.0000000000E+00         7    1         7      2266  0.6250000000E+00  0.3750000000E+00  0.1250000000E+00  0.5208333328E+02  0.4791666662E+02  0.5000000000E+00         3
       0       1  0.0000000000E+00         8    1         8      2266  0.8750000000E+00  0.3750000000E+00  0.1250000000E+00  0.5291666661E+02  0.4791666662E+02  0.5000000000E+00         3
       0       1  0.0000000000E+00         9    1         9      2266  0.1250000000E+00  0.6250000000E+00  0.1250000000E+00  0.5041666662E+02  0.4874999995E+02  0.5000000000E+00         3
       0       1  0.0000000000E+00        10    1        10      2266  0.3750000000E+00  0.6250000000E+00  0.1250000000E+00  0.5124999995E+02  0.4874999995E+02  0.5000000000E+00         3
       0       1  0.0000000000E+00        11    1        11      2266  0.6250000000E+00  0.6250000000E+00  0.1250000000E+00  0.5208333328E+02  0.4874999995E+02  0.5000000000E+00         3
       0       1  0.0000000000E+00        12    1        12      2266  0.8750000000E+00  0.6250000000E+00  0.1250000000E+00  0.5291666661E+02  0.4874999995E+02  0.5000000000E+00         3
       0       1  0.0000000000E+00        13    1        13      2266  0.1250000000E+00  0.8750000000E+00  0.1250000000E+00  0.5041666662E+02  0.4958333328E+02  0.5000000000E+00         3
       0       1  0.0000000000E+00        14    1        14      2266  0.3750000000E+00  0.8750000000E+00  0.1250000000E+00  0.5124999995E+02  0.4958333328E+02  0.5000000000E+00         3
       0       1  0.0000000000E+00        15    1        15      2266  0.6250000000E+00  0.8750000000E+00  0.1250000000E+00  0.5208333328E+02  0.4958333328E+02  0.5000000000E+00         3
       0       1  0.0000000000E+00        16    1        16      2266  0.8750000000E+00  0.8750000000E+00  0.1250000000E+00  0.5291666661E+02  0.4958333328E+02  0.5000000000E+00         3
       0       1  0.0000000000E+00        17    1        17      2266  0.1250000000E+00  0.1250000000E+00  0.3750000000E+00  0.5041666662E+02  0.4708333329E+02  0.1500000000E+01         3
       0       1  0.0000000000E+00        18    1        18      2266  0.3750000000E+00  0.1250000000E+00  0.3750000000E+00  0.5124999995E+02  0.4708333329E+02  0.1500000000E+01         3
       0       1  0.0000000000E+00        19    1        19      2266  0.6250000000E+00  0.1250000000E+00  0.3750000000E+00  0.5208333328E+02  0.4708333329E+02  0.1500000000E+01         3
       0       1  0.0000000000E+00        20    1        20      2266  0.8750000000E+00  0.1250000000E+00  0.3750000000E+00  0.5291666661E+02  0.4708333329E+02  0.1500000000E+01         3
       0       1  0.0000000000E+00        21    1        21      2266  0.1250000000E+00  0.3750000000E+00  0.3750000000E+00  0.5041666662E+02  0.4791666662E+02  0.1500000000E+01         3
       0       1  0.0000000000E+00        22    1        22      2266  0.3750000000E+00  0.3750000000E+00  0.3750000000E+00  0.5124999995E+02  0.4791666662E+02  0.1500000000E+01         3
       0       1  0.0000000000E+00        23    1        23      2266  0.6250000000E+00  0.3750000000E+00  0.3750000000E+00  0.5208333328E+02  0.4791666662E+02  0.1500000000E+01         3
       0       1  0.0000000000E+00        24    1        24      2266  0.8750000000E+00  0.3750000000E+00  0.3750000000E+00  0.5291666661E+02  0.4791666662E+02  0.1500000000E+01         3
       0       1  0.0000000000E+00        25    1        25      2266  0.1250000000E+00  0.6250000000E+00  0.3750000000E+00  0.5041666662E+02  0.4874999995E+02  0.1500000000E+01         3
       0       1  0.0000000000E+00        26    1        26      2266  0.3750000000E+00  0.6250000000E+00  0.3750000000E+00  0.5124999995E+02  0.4874999995E+02  0.1500000000E+01         3
       0       1  0.0000000000E+00        27    1        27      2266  0.6250000000E+00  0.6250000000E+00  0.3750000000E+00  0.5208333328E+02  0.4874999995E+02  0.1500000000E+01         3
       0       1  0.0000000000E+00        28    1        28      2266  0.8750000000E+00  0.6250000000E+00  0.3750000000E+00  0.5291666661E+02  0.4874999995E+02  0.1500000000E+01         3
       0       1  0.0000000000E+00        29    1        29      2266  0.1250000000E+00  0.8750000000E+00  0.3750000000E+00  0.5041666662E+02  0.4958333328E+02  0.1500000000E+01         3
       0       1  0.0000000000E+00        30    1        30      2266  0.3750000000E+00  0.8750000000E+00  0.3750000000E+00  0.5124999995E+02  0.4958333328E+02  0.1500000000E+01         3
       0       1  0.0000000000E+00        31    1        31      2266  0.6250000000E+00  0.8750000000E+00  0.3750000000E+00  0.5208333328E+02  0.4958333328E+02  0.1500000000E+01         3
       0       1  0.0000000000E+00        32    1        32      2266  0.8750000000E+00  0.8750000000E+00  0.3750000000E+00  0.5291666661E+02  0.4958333328E+02  0.1500000000E+01         3
       0       1  0.0000000000E+00        33    1        33      2266  0.1250000000E+00  0.1250000000E+00  0.6250000000E+00  0.5041666662E+02  0.4708333329E+02  0.2500000000E+01         3
       0       1  0.0000000000E+00        34    1        34      2266  0.3750000000E+00  0.1250000000E+00  0.6250000000E+00  0.5124999995E+02  0.4708333329E+02  0.2500000000E+01         3
       0       1  0.0000000000E+00        35    1        35      2266  0.6250000000E+00  0.1250000000E+00  0.6250000000E+00  0.5208333328E+02  0.4708333329E+02  0.2500000000E+01         3
       0       1  0.0000000000E+00        36    1        36      2266  0.8750000000E+00  0.1250000000E+00  0.6250000000E+00  0.5291666661E+02  0.4708333329E+02  0.2500000000E+01         3
       0       1  0.0000000000E+00        37    1        37      2266  0.1250000000E+00  0.3750000000E+00  0.6250000000E+00  0.5041666662E+02  0.4791666662E+02  0.2500000000E+01         3
       0       1  0.0000000000E+00        38    1        38      2266  0.3750000000E+00  0.3750000000E+00  0.6250000000E+00  0.5124999995E+02  0.4791666662E+02  0.2500000000E+01         3
       0       1  0.0000000000E+00        39    1        39      2266  0.6250000000E+00  0.3750000000E+00  0.6250000000E+00  0.5208333328E+02  0.4791666662E+02  0.2500000000E+01         3
       0       1  0.0000000000E+00        40    1        40      2266  0.8750000000E+00  0.3750000000E+00  0.6250000000E+00  0.5291666661E+02  0.4791666662E+02  0.2500000000E+01         3
       0       1  0.0000000000E+00        41    1        41      2266  0.1250000000E+00  0.6250000000E+00  0.6250000000E+00  0.5041666662E+02  0.4874999995E+02  0.2500000000E+01         3
       0       1  0.0000000000E+00        42    1        42      2266  0.3750000000E+00  0.6250000000E+00  0.6250000000E+00  0.5124999995E+02  0.4874999995E+02  0.2500000000E+01         3
       0       1  0.0000000000E+00        43    1        43      2266  0.6250000000E+00  0.6250000000E+00  0.6250000000E+00  0.5208333328E+02  0.4874999995E+02  0.2500000000E+01         3
       0       1  0.0000000000E+00        44    1        44      2266  0.8750000000E+00  0.6250000000E+00  0.6250000000E+00  0.5291666661E+02  0.4874999995E+02  0.2500000000E+01         3
       0       1  0.0000000000E+00        45    1        45      2266  0.1250000000E+00  0.8750000000E+00  0.6250000000E+00  0.5041666662E+02  0.4958333328E+02  0.2500000000E+01         3
       0       1  0.0000000000E+00        46    1        46      2266  0.3750000000E+00  0.8750000000E+00  0.6250000000E+00  0.5124999995E+02  0.4958333328E+02  0.2500000000E+01         3
       0       1  0.0000000000E+00        47    1        47      2266  0.6250000000E+00  0.8750000000E+00  0.6250000000E+00  0.5208333328E+02  0.4958333328E+02  0.2500000000E+01         3
       0       1  0.0000000000E+00        48    1        48      2266  0.8750000000E+00  0.8750000000E+00  0.6250000000E+00  0.5291666661E+02  0.4958333328E+02  0.2500000000E+01         3
       0       1  0.0000000000E+00        49    1        49      2266  0.1250000000E+00  0.1250000000E+00  0.8750000000E+00  0.5041666662E+02  0.4708333329E+02  0.3500000000E+01         3
       0       1  0.0000000000E+00        50    1        50      2266  0.3750000000E+00  0.1250000000E+00  0.8750000000E+00  0.5124999995E+02  0.4708333329E+02  0.3500000000E+01         3
       0       1  0.0000000000E+00        51    1        51      2266  0.6250000000E+00  0.1250000000E+00  0.8750000000E+00  0.5208333328E+02  0.4708333329E+02  0.3500000000E+01         3
       0       1  0.0000000000E+00        52    1        52      2266  0.8750000000E+00  0.1250000000E+00  0.8750000000E+00  0.5291666661E+02  0.4708333329E+02  0.3500000000E+01         3
       0       1  0.0000000000E+00        53    1        53      2266  0.1250000000E+00  0.3750000000E+00  0.8750000000E+00  0.5041666662E+02  0.4791666662E+02  0.3500000000E+01         3
       0       1  0.0000000000E+00        54    1        54      2266  0.3750000000E+00  0.3750000000E+00  0.8750000000E+00  0.5124999995E+02  0.4791666662E+02  0.3500000000E+01         3
       0       1  0.0000000000E+00        55    1        55      2266  0.6250000000E+00  0.3750000000E+00  0.8750000000E+00  0.5208333328E+02  0.4791666662E+02  0.3500000000E+01         3
       0       1  0.0000000000E+00        56    1        56      2266  0.8750000000E+00  0.3750000000E+00  0.8750000000E+00  0.5291666661E+02  0.4791666662E+02  0.3500000000E+01         3
       0       1  0.0000000000E+00        57    1        57      2266  0.1250000000E+00  0.6250000000E+00  0.8750000000E+00  0.5041666662E+02  0.4874999995E+02  0.3500000000E+01         3
       0       1  0.0000000000E+00        58    1        58      2266  0.3750000000E+00  0.6250000000E+00  0.8750000000E+00  0.5124999995E+02  0.4874999995E+02  0.3500000000E+01         3
       0       1  0.0000000000E+00        59    1        59      2266  0.6250000000E+00  0.6250000000E+00  0.8750000000E+00  0.5208333328E+02  0.4874999995E+02  0.3500000000E+01         3
       0       1  0.0000000000E+00        60    1        60      2266  0.8750000000E+00  0.6250000000E+00  0.8750000000E+00  0.5291666661E+02  0.4874999995E+02  0.3500000000E+01         3
       0       1  0.0000000000E+00        61    1        61      2266  0.1250000000E+00  0.8750000000E+00  0.8750000000E+00  0.5041666662E+02  0.4958333328E+02  0.3500000000E+01         3
       0       1  0.0000000000E+00        62    1        62      2266  0.3750000000E+00  0.8750000000E+00  0.8750000000E+00  0.5124999995E+02  0.4958333328E+02  0.3500000000E+01         3
       0       1  0.0000000000E+00        63    1        63      2266  0.6250000000E+00  0.8750000000E+00  0.8750000000E+00  0.5208333328E+02  0.4958333328E+02  0.3500000000E+01         3
       0       1  0.0000000000E+00        64    1        64      2266  0.8750000000E+00  0.8750000000E+00  0.8750000000E+00  0.5291666661E+02  0.4958333328E+02  0.3500000000E+01         3
       1       1  0.8640000000E+05         1    1         1      2323  0.8264938512E+00  0.8600288837E+00  0.1537220678E+00  0.4275497946E+02  0.4286676290E+02  0.6148882712E+00         3
       1       1  0.8640000000E+05         2    1         2      2324  0.6894294423E+00  0.3545851618E-01  0.1553317995E+00  0.4563143143E+02  0.4011819501E+02  0.6213271980E+00         3
       1       1  0.8640000000E+05         3    1         3      2355  0.9882755587E+00  0.5456540485E+00  0.1563519495E+00  0.4996091848E+02  0.3848551346E+02  0.6254077981E+00         3
       1       1  0.8640000000E+05         4    1         4      2327  0.6059224272E+00  0.2978717236E+00  0.1567733156E+00  0.5535307470E+02  0.4099290570E+02  0.6270932623E+00         3
       1       1  0.8640000000E+05         5    1         5      2293  0.1372365421E+00  0.9243694572E+00  0.1540884695E+00  0.4045745510E+02  0.4641456481E+02  0.6163538781E+00         3
       1       1  0.8640000000E+05         6    1         6      2293  0.6816990402E+00  0.1728552836E+00  0.1616791127E+00  0.4227233009E+02  0.4390951757E+02  0.6467164510E+00         3
       1       1  0.8640000000E+05         7    1         7      2327  0.2757823132E-01  0.3566226121E-01  0.1655811783E+00  0.5342526072E+02  0.4011887416E+02  0.6623247131E+00         3
       1       1  0.8640000000E+05         8    1         8      2298  0.7380527939E+00  0.6123096897E+00  0.1577449965E+00  0.5912684259E+02  0.4537436559E+02  0.6309799861E+00         3
       1       1  0.8640000000E+05         9    1         9      2233  0.1502082133E+00  0.9186779435E-01  0.1540038975E+00  0.4050069400E+02  0.5030622593E+02  0.6160155899E+00         3
       1       1  0.8640000000E+05        10    1        10      2233  0.6860895162E+00  0.8450911365E+00  0.1617096933E+00  0.4228696501E+02  0.5281697040E+02  0.6468387732E+00         3
       1       1  0.8640000000E+05        11    1        11      2207  0.1876076303E-01  0.9760283250E+00  0.1655371337E+00  0.5339586916E+02  0.5658676103E+02  0.6621485347E+00         3
       1       1  0.8640000000E+05        12    1        12      2238  0.7276788832E+00  0.4047599084E+00  0.1576803757E+00  0.5909226288E+02  0.5134919964E+02  0.6307215029E+00         3
       1       1  0.8640000000E+05        13    1        13      2203  0.8327306013E+00  0.1538377369E+00  0.1536797907E+00  0.4277576863E+02  0.5384612574E+02  0.6147191627E+00         3
       1       1  0.8640000000E+05        14    1        14      2204  0.6920897055E+00  0.9748031244E+00  0.1553324500E+00  0.4564029897E+02  0.5658267702E+02  0.6213298002E+00         3
       1       1  0.8640000000E+05        15    1        15      2175  0.9887819459E+00  0.4619075922E+00  0.1563103723E+00  0.4996260644E+02  0.5820635858E+02  0.6252414892E+00         3
       1       1  0.8640000000E+05        16    1        16      2207  0.6011025124E+00  0.7124456919E+00  0.1567239358E+00  0.5533700832E+02  0.5570815225E+02  0.6268957434E+00         3
       1       1  0.8640000000E+05        17    1        17      2323  0.8264938512E+00  0.8600288837E+00  0.4611662034E+00  0.4275497946E+02  0.4286676290E+02  0.1844664814E+01         3
       1       1  0.8640000000E+05        18    1        18      2324  0.6894294423E+00  0.3545851618E-01  0.4659953985E+00  0.4563143143E+02  0.4011819501E+02  0.1863981594E+01         3
       1       1  0.8640000000E+05        19    1        19      2355  0.9882755587E+00  0.5456540485E+00  0.4690558485E+00  0.4996091848E+02  0.3848551346E+02  0.1876223394E+01         3
       1       1  0.8640000000E+05        20    1        20      2327  0.6059224272E+00  0.2978717236E+00  0.4703199467E+00  0.5535307470E+02  0.4099290570E+02  0.1881279787E+01         3
       1       1  0.8640000000E+05        21    1        21      2293  0.1372365421E+00  0.9243694572E+00  0.4622654086E+00  0.4045745510E+02  0.4641456481E+02  0.1849061634E+01         3
       1       1  0.8640000000E+05        22    1        22      2293  0.6816990402E+00  0.1728552836E+00  0.4850373382E+00  0.4227233009E+02  0.4390951757E+02  0.1940149353E+01         3
       1       1  0.8640000000E+05        23    1        23      2327  0.2757823132E-01  0.3566226121E-01  0.4967435348E+00  0.5342526072E+02  0.4011887416E+02  0.1986974139E+01         3
       1       1  0.8640000000E+05        24    1        24      2298  0.7380527939E+00  0.6123096897E+00  0.4732349896E+00  0.5912684259E+02  0.4537436559E+02  0.1892939958E+01         3
       1       1  0.8640000000E+05        25    1        25      2233  0.1502082133E+00  0.9186779435E-01  0.4620116924E+00  0.4050069400E+02  0.5030622593E+02  0.1848046770E+01         3
       1       1  0.8640000000E+05        26    1        26      2233  0.6860895162E+00  0.8450911365E+00  0.4851290799E+00  0.4228696501E+02  0.5281697040E+02  0.1940516320E+01         3
       1       1  0.8640000000E+05        27    1        27      2207  0.1876076303E-01  0.9760283250E+00  0.4966114010E+00  0.5339586916E+02  0.5658676103E+02  0.1986445604E+01         3
       1       1  0.8640000000E+05        28    1        28      2238  0.7276788832E+00  0.4047599084E+00  0.4730411272E+00  0.5909226288E+02  0.5134919964E+02  0.1892164509E+01         3
       1       1  0.8640000000E+05        29    1        29      2203  0.8327306013E+00  0.1538377369E+00  0.4610393720E+00  0.4277576863E+02  0.5384612574E+02  0.1844157488E+01         3
       1       1  0.8640000000E+05        30    1        30      2204  0.6920897055E+00  0.9748031244E+00  0.4659973501E+00  0.4564029897E+02  0.5658267702E+02  0.1863989401E+01         3
       1       1  0.8640000000E+05        31    1        31      2175  0.9887819459E+00  0.4619075922E+00  0.4689311169E+00  0.4996260644E+02  0.5820635858E+02  0.1875724468E+01         3
       1       1  0.8640000000E+05        32    1        32      2207  0.6011025124E+00  0.7124456919E+00  0.4701718075E+00  0.5533700832E+02  0.5570815225E+02  0.1880687230E+01         3
       1       1  0.8640000000E+05        33    1        33      2323  0.8264938512E+00  0.8600288837E+00  0.7686103390E+00  0.4275497946E+02  0.4286676290E+02  0.3074441356E+01         3
       1       1  0.8640000000E+05        34    1        34      2324  0.6894294423E+00  0.3545851618E-01  0.7766589975E+00  0.4563143143E+02  0.4011819501E+02  0.3106635990E+01         3
       1       1  0.8640000000E+05        35    1        35      2355  0.9882755587E+00  0.5456540485E+00  0.7817597476E+00  0.4996091848E+02  0.3848551346E+02  0.3127038990E+01         3
       1       1  0.8640000000E+05        36    1        36      2327  0.6059224272E+00  0.2978717236E+00  0.7838665779E+00  0.5535307470E+02  0.4099290570E+02  0.3135466311E+01         3
       1       1  0.8640000000E+05        37    1        37      2293  0.1372365421E+00  0.9243694572E+00  0.7704423477E+00  0.4045745510E+02  0.4641456481E+02  0.3081769391E+01         3
       1       1  0.8640000000E+05        38    1        38      2293  0.6816990402E+00  0.1728552836E+00  0.8083955637E+00  0.4227233009E+02  0.4390951757E+02  0.3233582255E+01         3
       1       1  0.8640000000E+05        39    1        39      2327  0.2757823132E-01  0.3566226121E-01  0.8279058913E+00  0.5342526072E+02  0.4011887416E+02  0.3311623565E+01         3
       1       1  0.8640000000E+05        40    1        40      2298  0.7380527939E+00  0.6123096897E+00  0.7887249826E+00  0.5912684259E+02  0.4537436559E+02  0.3154899930E+01         3
       1       1  0.8640000000E+05        41    1        41      2233  0.1502082133E+00  0.9186779435E-01  0.7700194874E+00  0.4050069400E+02  0.5030622593E+02  0.3080077950E+01         3
       1       1  0.8640000000E+05        42    1        42      2233  0.6860895162E+00  0.8450911365E+00  0.8085484666E+00  0.4228696501E+02  0.5281697040E+02  0.3234193866E+01         3
       1       1  0.8640000000E+05        43    1        43      2207  0.1876076303E-01  0.9760283250E+00  0.8276856684E+00  0.5339586916E+02  0.5658676103E+02  0.3310742673E+01         3
       1       1  0.8640000000E+05        44    1        44      2238  0.7276788832E+00  0.4047599084E+00  0.7884018787E+00  0.5909226288E+02  0.5134919964E+02  0.3153607515E+01         3
       1       1  0.8640000000E+05        45    1        45      2203  0.8327306013E+00  0.1538377369E+00  0.7683989534E+00  0.4277576863E+02  0.5384612574E+02  0.3073595814E+01         3
       1       1  0.8640000000E+05        46    1        46      2204  0.6920897055E+00  0.9748031244E+00  0.7766622502E+00  0.4564029897E+02  0.5658267702E+02  0.3106649001E+01         3
       1       1  0.8640000000E+05        47    1        47      2175  0.9887819459E+00  0.4619075922E+00  0.7815518615E+00  0.4996260644E+02  0.5820635858E+02  0.3126207446E+01         3
       1       1  0.8640000000E+05        48    1        48      2207  0.6011025124E+00  0.7124456919E+00  0.7836196792E+00  0.5533700832E+02  0.5570815225E+02  0.3134478717E+01         3
       1       1  0.8640000000E+05        49    1        49      1394  0.7042114896E+00  0.2242669749E+00  0.3449234934E+00  0.4568070492E+02  0.4408088987E+02  0.4344923493E+01         2
       1       1  0.8640000000E+05        50    1        50      1425  0.4687967237E+00  0.6561707425E+00  0.3663600551E+00  0.4822932236E+02  0.4218723577E+02  0.4366360055E+01         2
       1       1  0.8640000000E+05        51    1        51      1426  0.4470364359E+00  0.4511883005E+00  0.4602959136E+00  0.5149012140E+02  0.4150396096E+02  0.4460295914E+01         2
       1       1  0.8640000000E+05        52    1        52      1397  0.4996758365E+00  0.7985993373E-01  0.5374201628E+00  0.5499891940E+02  0.4359953307E+02  0.4537420163E+01         2
       1       1  0.8640000000E+05        53    1        53      1364  0.1598771501E+00  0.6916606459E-01  0.4573655406E+00  0.4386625712E+02  0.4689722017E+02  0.4457365541E+01         2
       1       1  0.8640000000E+05        54    1        54      1395  0.1206487569E+00  0.7030172392E+00  0.7539420743E+00  0.4706882914E+02  0.4567672409E+02  0.4753942074E+01         2
       1       1  0.8640000000E+05        55    1        55       496  0.8778746861E+00  0.2105636947E+00  0.4791563878E-01  0.5292624890E+02  0.4403521227E+02  0.5143853164E+01         1
       1       1  0.8640000000E+05        56    1        56      1398  0.2498342877E+00  0.9901483497E+00  0.4365189626E+00  0.5749944757E+02  0.4663382779E+02  0.4436518963E+01         2
       1       1  0.8640000000E+05        57    1        57      1364  0.1598771501E+00  0.9392025039E+00  0.4573655406E+00  0.4386625712E+02  0.4979734163E+02  0.4457365541E+01         2
       1       1  0.8640000000E+05        58    1        58      1335  0.1247064290E+00  0.3034428670E+00  0.7533293354E+00  0.4708235472E+02  0.5101147617E+02  0.4753329335E+01         2
       1       1  0.8640000000E+05        59    1        59       436  0.8765105995E+00  0.7958588862E+00  0.4769056864E-01  0.5292170195E+02  0.5265286290E+02  0.5143250184E+01         1
       1       1  0.8640000000E+05        60    1        60      1338  0.2382495269E+00  0.1824490627E-01  0.4080079146E+00  0.5746083170E+02  0.5006081630E+02  0.4408007915E+01         2
       1       1  0.8640000000E+05        61    1        61      1334  0.7057833785E+00  0.7821053190E+00  0.3452258590E+00  0.4568594455E+02  0.5260701768E+02  0.4345225859E+01         2
       1       1  0.8640000000E+05        62    1        62      1305  0.4701139579E+00  0.3497232106E+00  0.3661101516E+00  0.4823371314E+02  0.5449907731E+02  0.4366110152E+01         2
       1       1  0.8640000000E+05        63    1        63      1306  0.4464978344E+00  0.5535161082E+00  0.4601425871E+00  0.5148832606E+02  0.5517838697E+02  0.4460142587E+01         2
       1       1  0.8640000000E+05        64    1        64      1337  0.4994048418E+00  0.9266602209E+00  0.5376233687E+00  0.5499801608E+02  0.5308886735E+02  0.4537623369E+01         2
       2       1  0.1728000000E+06         1    1         1      2322  0.4220951591E+00  0.4566288128E+00  0.1672182636E+00  0.3807365049E+02  0.4152209600E+02  0.6688730543E+00         3
       2       1  0.1728000000E+06         2    1         2      2353  0.4525902545E+00  0.3732872345E+00  0.1690673115E+00  0.4150863414E+02  0.3791095741E+02  0.6762692459E+00         3
       2       1  0.1728000000E+06         3    1         3      2385  0.1440535366E-01  0.6338678867E+00  0.1716090270E+00  0.4671468447E+02  0.3544622625E+02  0.6864361081E+00         3
       2       1  0.1728000000E+06         4    1         4      2357  0.3705278864E+00  0.1644453354E+00  0.1761232782E+00  0.5456842623E+02  0.3721481775E+02  0.7044931129E+00         3
       2       1  0.1728000000E+06         5    1         5      2291  0.6878377295E+00  0.7976643628E+00  0.1668621244E+00  0.3562612573E+02  0.4599221450E+02  0.6674484974E+00         3
       2       1  0.1728000000E+06         6    1         6      2322  0.2013824287E+00  0.8313803093E+00  0.1765909476E+00  0.3733794139E+02  0.4277126765E+02  0.7063637904E+00         3
       2       1  0.1728000000E+06         7    1         7      2386  0.4730607017E+00  0.8305930823E+00  0.1848672373E+00  0.5157686895E+02  0.3610197690E+02  0.7394689491E+00         3
       2       1  0.1728000000E+06         8    1         8      2299  0.3019603862E+00  0.5058328745E-01  0.1783011540E+00  0.6100653456E+02  0.4350194425E+02  0.7132046158E+00         3
       2       1  0.1728000000E+06         9    1         9      2231  0.6985876108E+00  0.2337405596E+00  0.1668360572E+00  0.3566195867E+02  0.5077913515E+02  0.6673442287E+00         3
       2       1  0.1728000000E+06        10    1        10      2202  0.2155453578E+00  0.2022223179E+00  0.1764812181E+00  0.3738515116E+02  0.5400740767E+02  0.7059248723E+00         3
       2       1  0.1728000000E+06        11    1        11      2146  0.4546168140E+00  0.1912894042E+00  0.1846416312E+00  0.5151538933E+02  0.6063763129E+02  0.7385665247E+00         3
       2       1  0.1728000000E+06        12    1        12      2239  0.2948212780E+00  0.9917096229E+00  0.1783906646E+00  0.6098273753E+02  0.5330569869E+02  0.7135626584E+00         3
       2       1  0.1728000000E+06        13    1        13      2202  0.4283212582E+00  0.5698418602E+00  0.1671851105E+00  0.3809440416E+02  0.5523280615E+02  0.6687404421E+00         3
       2       1  0.1728000000E+06        14    1        14      2173  0.4612611913E+00  0.6484434672E+00  0.1690106134E+00  0.4153753726E+02  0.5882814483E+02  0.6760424537E+00         3
       2       1  0.1728000000E+06        15    1        15      2145  0.1840735903E-01  0.3820147251E+00  0.1714916071E+00  0.4672802448E+02  0.6127338236E+02  0.6859664285E+00         3
       2       1  0.1728000000E+06        16    1        16      2177  0.3598138211E+00  0.8525345699E+00  0.1759829870E+00  0.5453271268E+02  0.5950844851E+02  0.7039319479E+00         3
       2       1  0.1728000000E+06        17    1        17      2322  0.4220951591E+00  0.4566288128E+00  0.5016547907E+00  0.3807365049E+02  0.4152209600E+02  0.2006619163E+01         3
       2       1  0.1728000000E+06        18    1        18      2353  0.4525902545E+00  0.3732872345E+00  0.5072019344E+00  0.4150863414E+02  0.3791095741E+02  0.2028807738E+01         3
       2       1  0.1728000000E+06        19    1        19      2385  0.1440535366E-01  0.6338678867E+00  0.5148270811E+00  0.4671468447E+02  0.3544622625E+02  0.2059308324E+01         3
       2       1  0.1728000000E+06        20    1        20      2357  0.3705278864E+00  0.1644453354E+00  0.5283698347E+00  0.5456842623E+02  0.3721481775E+02  0.2113479339E+01         3
       2       1  0.1728000000E+06        21    1        21      2291  0.6878377295E+00  0.7976643628E+00  0.5005863731E+00  0.3562612573E+02  0.4599221450E+02  0.2002345492E+01         3
       2       1  0.1728000000E+06        22    1        22      2322  0.2013824287E+00  0.8313803093E+00  0.5297728428E+00  0.3733794139E+02  0.4277126765E+02  0.2119091371E+01         3
       2       1  0.1728000000E+06        23    1        23      2386  0.4730607017E+00  0.8305930823E+00  0.5546017119E+00  0.5157686895E+02  0.3610197690E+02  0.2218406847E+01         3
       2       1  0.1728000000E+06        24    1        24      2299  0.3019603862E+00  0.5058328745E-01  0.5349034619E+00  0.6100653456E+02  0.4350194425E+02  0.2139613847E+01         3
       2       1  0.1728000000E+06        25    1        25      2231  0.6985876108E+00  0.2337405596E+00  0.5005081716E+00  0.3566195867E+02  0.5077913515E+02  0.2002032686E+01         3
       2       1  0.1728000000E+06        26    1        26      2202  0.2155453578E+00  0.2022223179E+00  0.5294436542E+00  0.3738515116E+02  0.5400740767E+02  0.2117774617E+01         3
       2       1  0.1728000000E+06        27    1        27      2146  0.4546168140E+00  0.1912894042E+00  0.5539248936E+00  0.5151538933E+02  0.6063763129E+02  0.2215699574E+01         3
       2       1  0.1728000000E+06        28    1        28      2239  0.2948212780E+00  0.9917096229E+00  0.5351719938E+00  0.6098273753E+02  0.5330569869E+02  0.2140687975E+01         3
       2       1  0.1728000000E+06        29    1        29      2202  0.4283212582E+00  0.5698418602E+00  0.5015553316E+00  0.3809440416E+02  0.5523280615E+02  0.2006221326E+01         3
       2       1  0.1728000000E+06        30    1        30      2173  0.4612611913E+00  0.6484434672E+00  0.5070318403E+00  0.4153753726E+02  0.5882814483E+02  0.2028127361E+01         3