BEGIN options
END options

BEGIN dimensions
  MAXBOUND  30
END dimensions

BEGIN period  1
  1 1 1      10.00000000
  1 2 1      10.00000000
  1 3 1      10.00000000
  1 4 1      10.00000000
  1 5 1      10.00000000
  1 6 1      10.00000000
  1 7 1      10.00000000
  1 8 1      10.00000000
  1 9 1      10.00000000
  1 10 1      10.00000000
  1 11 1      10.00000000
  1 12 1      10.00000000
  1 13 1      10.00000000
  1 14 1      10.00000000
  1 15 1      10.00000000
  1 16 1      10.00000000
  1 17 1      10.00000000
  1 18 1      10.00000000
  1 19 1      10.00000000
  1 20 1      10.00000000
  1 21 1      10.00000000
  1 22 1      10.00000000
  1 23 1      10.00000000
  1 24 1      10.00000000
  1 25 1      10.00000000
  1 26 1      10.00000000
  1 27 1      10.00000000
  1 28 1      10.00000000
  1 29 1      10.00000000
  1 30 1      10.00000000
END period  1

